
     RDKit          2D

 40 43  0  0  0  0  0  0  0  0999 V2000
    0.0000    5.1962    0.0000 F   0  0  0  0  0  0  0  0  0  0  0  0
   -0.7500    3.8971    0.0000 C   0  0  0  0  0  0  0  0  0  0  0  0
   -2.0490    4.6471    0.0000 F   0  0  0  0  0  0  0  0  0  0  0  0
    0.5490    3.1471    0.0000 F   0  0  0  0  0  0  0  0  0  0  0  0
   -1.5000    2.5981    0.0000 C   0  0  0  0  0  0  0  0  0  0  0  0
    0.7500   -1.2990    0.0000 C   0  0  0  0  0  0  0  0  0  0  0  0
    1.5000    0.0000    0.0000 C   0  0  0  0  0  0  0  0  0  0  0  0
    0.7500    1.2990    0.0000 C   0  0  0  0  0  0  0  0  0  0  0  0
   -0.7500    1.2990    0.0000 C   0  0  0  0  0  0  0  0  0  0  0  0
   -1.5000    0.0000    0.0000 N   0  0  0  0  0  0  0  0  0  0  0  0
   -0.7500   -1.2990    0.0000 C   0  0  0  0  0  0  0  0  0  0  0  0
    3.0000   -5.1962    0.0000 C   0  0  0  0  0  0  0  0  0  0  0  0
    3.7500   -3.8971    0.0000 N   0  0  0  0  0  0  0  0  0  0  0  0
    3.0000   -2.5981    0.0000 C   0  0  0  0  0  0  0  0  0  0  0  0
    1.5000   -2.5981    0.0000 C   0  0  0  0  0  0  0  0  0  0  0  0
    0.7500   -3.8971    0.0000 C   0  0  0  0  0  0  0  0  0  0  0  0
    1.5000   -5.1962    0.0000 N   0  0  0  0  0  0  0  0  0  0  0  0
    5.2418   -6.6520    0.0000 N   0  0  0  0  0  0  0  0  0  0  0  0
    5.5537   -8.1192    0.0000 N   0  0  0  0  0  0  0  0  0  0  0  0
    4.2546   -8.8692    0.0000 C   0  0  0  0  0  0  0  0  0  0  0  0
    3.1399   -7.8655    0.0000 C   0  0  0  0  0  0  0  0  0  0  0  0
    3.7500   -6.4952    0.0000 C   0  0  0  0  0  0  0  0  0  0  0  0
    0.1437  -10.6995    0.0000 F   0  0  0  0  0  0  0  0  0  0  0  0
    1.3572  -11.5812    0.0000 C   0  0  0  0  0  0  0  0  0  0  0  0
    1.2004  -13.0730    0.0000 F   0  0  0  0  0  0  0  0  0  0  0  0
    2.7275  -10.9711    0.0000 C   0  0  0  0  0  0  0  0  0  0  0  0
    2.1174   -9.6008    0.0000 F   0  0  0  0  0  0  0  0  0  0  0  0
    3.3376  -12.3414    0.0000 F   0  0  0  0  0  0  0  0  0  0  0  0
    4.0978  -10.3610    0.0000 O   0  0  0  0  0  0  0  0  0  0  0  0
    8.2529   -3.3078    0.0000 C   0  0  0  0  0  0  0  0  0  0  0  0
    8.7164   -4.7344    0.0000 C   0  0  0  0  0  0  0  0  0  0  0  0
    7.7127   -5.8491    0.0000 C   0  0  0  0  0  0  0  0  0  0  0  0
    6.2455   -5.5373    0.0000 C   0  0  0  0  0  0  0  0  0  0  0  0
    5.7820   -4.1107    0.0000 C   0  0  0  0  0  0  0  0  0  0  0  0
    6.7856   -2.9960    0.0000 C   0  0  0  0  0  0  0  0  0  0  0  0
   10.7238   -2.5050    0.0000 C   0  0  0  0  0  0  0  0  0  0  0  0
    9.2566   -2.1931    0.0000 N   0  0  0  0  0  0  0  0  0  0  0  0
    8.7930   -0.7665    0.0000 S   0  0  0  0  0  0  0  0  0  0  0  0
    9.7967    0.3482    0.0000 O   0  0  0  0  0  0  0  0  0  0  0  0
    7.3258   -0.4547    0.0000 O   0  0  0  0  0  0  0  0  0  0  0  0
  1  2  1  0
  2  3  1  0
  2  4  1  0
  2  5  1  0
  6  7  2  0
  7  8  1  0
  8  9  2  0
  9 10  1  0
 10 11  2  0
 11  6  1  0
 12 13  2  0
 13 14  1  0
 14 15  2  0
 15 16  1  0
 16 17  2  0
 17 12  1  0
 18 19  1  0
 19 20  2  0
 20 21  1  0
 21 22  2  0
 22 18  1  0
 23 24  1  0
 24 25  1  0
 24 26  1  0
 26 27  1  0
 26 28  1  0
 26 29  1  0
 30 31  2  0
 31 32  1  0
 32 33  2  0
 33 34  1  0
 34 35  2  0
 35 30  1  0
 36 37  1  0
 37 38  1  0
 38 39  2  0
 38 40  2  0
  5  9  1  0
  6 15  1  0
 12 22  1  0
 20 29  1  0
 18 33  1  0
 30 37  1  0
M  END

