
     RDKit          2D

 25 28  0  0  0  0  0  0  0  0999 V2000
    9.7249    7.8978    0.0000 N   0  0  0  0  0  0  0  0  0  0  0  0
    8.8432    6.6843    0.0000 C   0  0  0  0  0  0  0  0  0  0  0  0
    7.3514    6.8411    0.0000 C   0  0  0  0  0  0  0  0  0  0  0  0
    6.4697    5.6276    0.0000 C   0  0  0  0  0  0  0  0  0  0  0  0
    7.0798    4.2573    0.0000 O   0  0  0  0  0  0  0  0  0  0  0  0
    4.9780    5.7844    0.0000 N   0  0  0  0  0  0  0  0  0  0  0  0
    4.0963    4.5709    0.0000 C   0  0  0  0  0  0  0  0  0  0  0  0
    4.5598    3.1443    0.0000 N   0  0  0  0  0  0  0  0  0  0  0  0
    3.3463    2.2626    0.0000 N   0  0  0  0  0  0  0  0  0  0  0  0
    2.1328    3.1443    0.0000 C   0  0  0  0  0  0  0  0  0  0  0  0
    0.7062    2.6807    0.0000 C   0  0  0  0  0  0  0  0  0  0  0  0
   -0.4086    3.6844    0.0000 C   0  0  0  0  0  0  0  0  0  0  0  0
   -1.8351    3.2209    0.0000 C   0  0  0  0  0  0  0  0  0  0  0  0
   -2.1470    1.7537    0.0000 N   0  0  0  0  0  0  0  0  0  0  0  0
   -1.0323    0.7500    0.0000 C   0  0  0  0  0  0  0  0  0  0  0  0
    0.3943    1.2135    0.0000 C   0  0  0  0  0  0  0  0  0  0  0  0
    1.2760    0.0000    0.0000 C   0  0  0  0  0  0  0  0  0  0  0  0
    0.3943   -1.2135    0.0000 C   0  0  0  0  0  0  0  0  0  0  0  0
   -1.0323   -0.7500    0.0000 N   0  0  0  0  0  0  0  0  0  0  0  0
    2.5963    4.5709    0.0000 O   0  0  0  0  0  0  0  0  0  0  0  0
    6.7413    8.2114    0.0000 N   0  0  0  0  0  0  0  0  0  0  0  0
    5.2741    8.5233    0.0000 C   0  0  0  0  0  0  0  0  0  0  0  0
    5.1173   10.0151    0.0000 C   0  0  0  0  0  0  0  0  0  0  0  0
    6.4876   10.6252    0.0000 C   0  0  0  0  0  0  0  0  0  0  0  0
    7.4913    9.5105    0.0000 C   0  0  0  0  0  0  0  0  0  0  0  0
  1  2  1  0
  2  3  1  0
  3  4  1  0
  4  5  2  0
  4  6  1  0
  6  7  1  0
  7  8  2  0
  8  9  1  0
  9 10  2  0
 10 11  1  0
 11 12  2  0
 12 13  1  0
 13 14  2  0
 14 15  1  0
 15 16  2  0
 16 17  1  0
 17 18  2  0
 18 19  1  0
 10 20  1  0
  3 21  1  0
 21 22  1  0
 22 23  2  0
 23 24  1  0
 24 25  2  0
 20  7  1  0
 25 21  1  0
 16 11  1  0
 19 15  1  0
M  END

