
     RDKit          2D

 31 34  0  0  0  0  0  0  0  0999 V2000
    6.0000   -2.5981    0.0000 C   0  0  0  0  0  0  0  0  0  0  0  0
    5.2500   -1.2990    0.0000 N   0  0  0  0  0  0  0  0  0  0  0  0
    3.7500   -1.2990    0.0000 C   0  0  0  0  0  0  0  0  0  0  0  0
    3.0000   -2.5981    0.0000 O   0  0  0  0  0  0  0  0  0  0  0  0
    3.0000    0.0000    0.0000 N   0  0  0  0  0  0  0  0  0  0  0  0
    1.5000    0.0000    0.0000 C   0  0  0  0  0  0  0  0  0  0  0  0
    0.7500   -1.2990    0.0000 C   0  0  0  0  0  0  0  0  0  0  0  0
   -0.7500   -1.2990    0.0000 C   0  0  0  0  0  0  0  0  0  0  0  0
   -1.5000    0.0000    0.0000 C   0  0  0  0  0  0  0  0  0  0  0  0
   -3.0000    0.0000    0.0000 C   0  0  0  0  0  0  0  0  0  0  0  0
   -3.7500    1.2990    0.0000 N   0  0  0  0  0  0  0  0  0  0  0  0
   -5.2500    1.2990    0.0000 C   0  0  0  0  0  0  0  0  0  0  0  0
   -6.0000    2.5981    0.0000 S   0  0  0  0  0  0  0  0  0  0  0  0
   -7.2990    1.8481    0.0000 O   0  0  0  0  0  0  0  0  0  0  0  0
   -4.7010    3.3481    0.0000 O   0  0  0  0  0  0  0  0  0  0  0  0
   -6.7500    3.8971    0.0000 C   0  0  0  0  0  0  0  0  0  0  0  0
   -8.2500    3.8971    0.0000 C   0  0  0  0  0  0  0  0  0  0  0  0
   -9.5490    3.1471    0.0000 C   0  0  0  0  0  0  0  0  0  0  0  0
   -9.5490    4.6471    0.0000 C   0  0  0  0  0  0  0  0  0  0  0  0
   -6.0000    0.0000    0.0000 C   0  0  0  0  0  0  0  0  0  0  0  0
   -5.2500   -1.2990    0.0000 C   0  0  0  0  0  0  0  0  0  0  0  0
   -6.0000   -2.5981    0.0000 C   0  0  0  0  0  0  0  0  0  0  0  0
   -4.6297   -3.2082    0.0000 C   0  0  0  0  0  0  0  0  0  0  0  0
   -4.4729   -4.7000    0.0000 N   0  0  0  0  0  0  0  0  0  0  0  0
   -6.4635   -4.0247    0.0000 C   0  0  0  0  0  0  0  0  0  0  0  0
   -7.9635   -4.0247    0.0000 C   0  0  0  0  0  0  0  0  0  0  0  0
   -8.4271   -2.5981    0.0000 C   0  0  0  0  0  0  0  0  0  0  0  0
   -7.2135   -1.7164    0.0000 N   0  0  0  0  0  0  0  0  0  0  0  0
   -3.7500   -1.2990    0.0000 N   0  0  0  0  0  0  0  0  0  0  0  0
   -0.7500    1.2990    0.0000 C   0  0  0  0  0  0  0  0  0  0  0  0
    0.7500    1.2990    0.0000 C   0  0  0  0  0  0  0  0  0  0  0  0
  1  2  1  0
  2  3  1  0
  3  4  2  0
  3  5  1  0
  5  6  1  0
  6  7  2  0
  7  8  1  0
  8  9  2  0
  9 10  1  0
 10 11  2  0
 11 12  1  0
 12 13  1  0
 13 14  2  0
 13 15  2  0
 13 16  1  0
 16 17  1  0
 17 18  1  0
 18 19  1  0
 12 20  2  0
 20 21  1  0
 21 22  1  0
 22 23  1  1
 23 24  1  0
 22 25  1  0
 25 26  1  0
 26 27  1  0
 27 28  1  0
 21 29  2  0
  9 30  1  0
 30 31  2  0
 31  6  1  0
 29 10  1  0
 19 17  1  0
 28 22  1  0
M  END

