
     RDKit          2D

 33 37  0  0  0  0  0  0  0  0999 V2000
   -8.8334  -17.1375    0.0000 C   0  0  0  0  0  0  0  0  0  0  0  0
   -7.5344  -16.3875    0.0000 N   0  0  0  0  0  0  0  0  0  0  0  0
   -6.2353  -17.1375    0.0000 C   0  0  0  0  0  0  0  0  0  0  0  0
   -7.5344  -14.8875    0.0000 C   0  0  0  0  0  0  0  0  0  0  0  0
   -6.2353  -14.1375    0.0000 C   0  0  0  0  0  0  0  0  0  0  0  0
   -4.9363  -14.8875    0.0000 O   0  0  0  0  0  0  0  0  0  0  0  0
   -6.2353  -12.6375    0.0000 N   0  0  0  0  0  0  0  0  0  0  0  0
   -7.5344  -11.8875    0.0000 C   0  0  0  0  0  0  0  0  0  0  0  0
   -7.5344  -10.3875    0.0000 C   0  0  0  0  0  0  0  0  0  0  0  0
   -6.2353   -9.6375    0.0000 C   0  0  0  0  0  0  0  0  0  0  0  0
   -6.2353   -8.1375    0.0000 C   0  0  0  0  0  0  0  0  0  0  0  0
   -7.4488   -7.2558    0.0000 C   0  0  0  0  0  0  0  0  0  0  0  0
   -6.9853   -5.8293    0.0000 N   0  0  0  0  0  0  0  0  0  0  0  0
   -7.8670   -4.6157    0.0000 C   0  0  0  0  0  0  0  0  0  0  0  0
   -5.4853   -5.8293    0.0000 C   0  0  0  0  0  0  0  0  0  0  0  0
   -4.6036   -4.6157    0.0000 C   0  0  0  0  0  0  0  0  0  0  0  0
   -5.0672   -3.1891    0.0000 C   0  0  0  0  0  0  0  0  0  0  0  0
   -3.8536   -2.3075    0.0000 N   0  0  0  0  0  0  0  0  0  0  0  0
   -3.8536   -0.8075    0.0000 N   0  0  0  0  0  0  0  0  0  0  0  0
   -2.6401   -3.1891    0.0000 C   0  0  0  0  0  0  0  0  0  0  0  0
   -1.2135   -2.7256    0.0000 N   0  0  0  0  0  0  0  0  0  0  0  0
   -0.0000   -3.6073    0.0000 N   0  0  0  0  0  0  0  0  0  0  0  0
    1.2135   -2.7256    0.0000 C   0  0  0  0  0  0  0  0  0  0  0  0
    0.7500   -1.2990    0.0000 C   0  0  0  0  0  0  0  0  0  0  0  0
    1.5000    0.0000    0.0000 C   0  0  0  0  0  0  0  0  0  0  0  0
    0.7500    1.2990    0.0000 C   0  0  0  0  0  0  0  0  0  0  0  0
   -0.7500    1.2990    0.0000 C   0  0  0  0  0  0  0  0  0  0  0  0
   -1.5000    0.0000    0.0000 C   0  0  0  0  0  0  0  0  0  0  0  0
   -0.7500   -1.2990    0.0000 C   0  0  0  0  0  0  0  0  0  0  0  0
   -3.1036   -4.6157    0.0000 N   0  0  0  0  0  0  0  0  0  0  0  0
   -5.0218   -7.2558    0.0000 N   0  0  0  0  0  0  0  0  0  0  0  0
   -4.9363  -10.3875    0.0000 C   0  0  0  0  0  0  0  0  0  0  0  0
   -4.9363  -11.8875    0.0000 C   0  0  0  0  0  0  0  0  0  0  0  0
  1  2  1  0
  2  3  1  0
  2  4  1  0
  4  5  1  0
  5  6  2  0
  5  7  1  0
  7  8  1  0
  8  9  1  0
  9 10  1  0
 10 11  1  0
 11 12  2  0
 12 13  1  0
 13 14  1  0
 13 15  1  0
 15 16  1  0
 16 17  2  0
 17 18  1  0
 18 19  1  0
 18 20  1  0
 20 21  1  0
 21 22  1  0
 22 23  2  0
 23 24  1  0
 24 25  2  0
 25 26  1  0
 26 27  2  0
 27 28  1  0
 28 29  2  0
 20 30  2  0
 15 31  2  0
 10 32  1  0
 32 33  1  0
 33  7  1  0
 31 11  1  0
 30 16  1  0
 29 21  1  0
 29 24  1  0
M  END

