
     RDKit          2D

 33 37  0  0  0  0  0  0  0  0999 V2000
    6.0000   -2.5981    0.0000 C   0  0  0  0  0  0  0  0  0  0  0  0
    5.2500   -1.2990    0.0000 N   0  0  0  0  0  0  0  0  0  0  0  0
    3.7500   -1.2990    0.0000 C   0  0  0  0  0  0  0  0  0  0  0  0
    3.0000   -2.5981    0.0000 O   0  0  0  0  0  0  0  0  0  0  0  0
    3.0000    0.0000    0.0000 N   0  0  0  0  0  0  0  0  0  0  0  0
    1.5000    0.0000    0.0000 C   0  0  0  0  0  0  0  0  0  0  0  0
    0.7500   -1.2990    0.0000 C   0  0  0  0  0  0  0  0  0  0  0  0
   -0.7500   -1.2990    0.0000 C   0  0  0  0  0  0  0  0  0  0  0  0
   -1.5000    0.0000    0.0000 C   0  0  0  0  0  0  0  0  0  0  0  0
   -2.9672    0.3119    0.0000 C   0  0  0  0  0  0  0  0  0  0  0  0
   -3.1240    1.8037    0.0000 C   0  0  0  0  0  0  0  0  0  0  0  0
   -1.7537    2.4138    0.0000 N   0  0  0  0  0  0  0  0  0  0  0  0
   -1.4418    3.8810    0.0000 C   0  0  0  0  0  0  0  0  0  0  0  0
   -2.5565    4.8847    0.0000 N   0  0  0  0  0  0  0  0  0  0  0  0
   -2.2447    6.3519    0.0000 C   0  0  0  0  0  0  0  0  0  0  0  0
   -3.1264    7.5654    0.0000 C   0  0  0  0  0  0  0  0  0  0  0  0
   -4.6264    7.5654    0.0000 C   0  0  0  0  0  0  0  0  0  0  0  0
   -6.1264    7.5654    0.0000 N   0  0  0  0  0  0  0  0  0  0  0  0
   -2.2447    8.7789    0.0000 C   0  0  0  0  0  0  0  0  0  0  0  0
   -0.8181    8.3154    0.0000 N   0  0  0  0  0  0  0  0  0  0  0  0
   -0.8181    6.8154    0.0000 N   0  0  0  0  0  0  0  0  0  0  0  0
    0.2966    5.8117    0.0000 C   0  0  0  0  0  0  0  0  0  0  0  0
    1.7232    6.2752    0.0000 C   0  0  0  0  0  0  0  0  0  0  0  0
    2.8379    5.2716    0.0000 C   0  0  0  0  0  0  0  0  0  0  0  0
    4.2645    5.7351    0.0000 N   0  0  0  0  0  0  0  0  0  0  0  0
    5.3792    4.7314    0.0000 N   0  0  0  0  0  0  0  0  0  0  0  0
    6.8464    5.0433    0.0000 C   0  0  0  0  0  0  0  0  0  0  0  0
    7.5964    3.7442    0.0000 C   0  0  0  0  0  0  0  0  0  0  0  0
    6.5928    2.6295    0.0000 C   0  0  0  0  0  0  0  0  0  0  0  0
    5.2224    3.2396    0.0000 C   0  0  0  0  0  0  0  0  0  0  0  0
   -0.0152    4.3445    0.0000 C   0  0  0  0  0  0  0  0  0  0  0  0
   -0.7500    1.2990    0.0000 C   0  0  0  0  0  0  0  0  0  0  0  0
    0.7500    1.2990    0.0000 C   0  0  0  0  0  0  0  0  0  0  0  0
  1  2  1  0
  2  3  1  0
  3  4  2  0
  3  5  1  0
  5  6  1  0
  6  7  2  0
  7  8  1  0
  8  9  2  0
  9 10  1  0
 10 11  2  0
 11 12  1  0
 12 13  1  0
 13 14  2  0
 14 15  1  0
 15 16  2  0
 16 17  1  0
 17 18  3  0
 16 19  1  0
 19 20  2  0
 20 21  1  0
 21 22  1  0
 22 23  1  0
 23 24  1  0
 24 25  1  0
 25 26  1  0
 26 27  1  0
 27 28  1  0
 28 29  1  0
 29 30  1  0
 22 31  2  0
 12 32  1  0
 32 33  2  0
 33  6  1  0
 32  9  1  0
 31 13  1  0
 21 15  1  0
 30 26  1  0
M  ISO  1  17  11
M  END

