
     RDKit          2D

 29 32  0  0  0  0  0  0  0  0999 V2000
    3.7548   -2.1855    0.0000 N   0  0  0  0  0  0  0  0  0  0  0  0
    5.1814   -2.6490    0.0000 C   0  0  0  0  0  0  0  0  0  0  0  0
    6.2961   -1.6453    0.0000 N   0  0  0  0  0  0  0  0  0  0  0  0
    5.4933   -4.1162    0.0000 C   0  0  0  0  0  0  0  0  0  0  0  0
    6.9199   -4.5797    0.0000 C   0  0  0  0  0  0  0  0  0  0  0  0
    7.2317   -6.0469    0.0000 C   0  0  0  0  0  0  0  0  0  0  0  0
    8.6583   -6.5105    0.0000 N   0  0  0  0  0  0  0  0  0  0  0  0
    8.9702   -7.9777    0.0000 C   0  0  0  0  0  0  0  0  0  0  0  0
   10.3968   -8.4412    0.0000 C   0  0  0  0  0  0  0  0  0  0  0  0
   11.5115   -7.4375    0.0000 O   0  0  0  0  0  0  0  0  0  0  0  0
   11.1996   -5.9703    0.0000 C   0  0  0  0  0  0  0  0  0  0  0  0
    9.7730   -5.5068    0.0000 C   0  0  0  0  0  0  0  0  0  0  0  0
    6.1170   -7.0506    0.0000 N   0  0  0  0  0  0  0  0  0  0  0  0
    4.6904   -6.5871    0.0000 C   0  0  0  0  0  0  0  0  0  0  0  0
    4.3786   -5.1199    0.0000 C   0  0  0  0  0  0  0  0  0  0  0  0
    2.9520   -4.6564    0.0000 C   0  0  0  0  0  0  0  0  0  0  0  0
    1.8373   -5.6601    0.0000 C   0  0  0  0  0  0  0  0  0  0  0  0
    2.1491   -7.1273    0.0000 O   0  0  0  0  0  0  0  0  0  0  0  0
    0.4107   -5.1965    0.0000 N   0  0  0  0  0  0  0  0  0  0  0  0
   -0.8028   -6.0782    0.0000 C   0  0  0  0  0  0  0  0  0  0  0  0
   -0.9596   -7.5700    0.0000 C   0  0  0  0  0  0  0  0  0  0  0  0
   -2.3300   -8.1801    0.0000 C   0  0  0  0  0  0  0  0  0  0  0  0
   -3.5435   -7.2984    0.0000 C   0  0  0  0  0  0  0  0  0  0  0  0
   -4.9138   -7.9085    0.0000 F   0  0  0  0  0  0  0  0  0  0  0  0
   -3.3867   -5.8066    0.0000 C   0  0  0  0  0  0  0  0  0  0  0  0
   -2.0164   -5.1965    0.0000 C   0  0  0  0  0  0  0  0  0  0  0  0
   -1.5528   -3.7700    0.0000 C   0  0  0  0  0  0  0  0  0  0  0  0
   -0.0528   -3.7700    0.0000 C   0  0  0  0  0  0  0  0  0  0  0  0
    0.8288   -2.5564    0.0000 N   0  0  0  0  0  0  0  0  0  0  0  0
  1  2  2  0
  2  3  1  0
  2  4  1  0
  4  5  2  0
  5  6  1  0
  6  7  1  0
  7  8  1  0
  8  9  1  0
  9 10  1  0
 10 11  1  0
 11 12  1  0
  6 13  2  0
 13 14  1  0
 14 15  2  0
 15 16  1  0
 16 17  1  0
 17 18  2  0
 17 19  1  0
 19 20  1  0
 20 21  2  0
 21 22  1  0
 22 23  2  0
 23 24  1  0
 23 25  1  0
 25 26  2  0
 26 27  1  0
 27 28  1  0
 28 29  1  0
 15  4  1  0
 28 19  1  0
 12  7  1  0
 26 20  1  0
M  ISO  1  24  18
M  END

