
     RDKit          2D

 33 36  0  0  0  0  0  0  0  0999 V2000
    6.3767    3.5094    0.0000 N   0  0  0  0  0  0  0  0  0  0  0  0
    4.9859    4.0713    0.0000 C   0  0  0  0  0  0  0  0  0  0  0  0
    5.7808    5.3434    0.0000 C   0  0  0  0  0  0  0  0  0  0  0  0
    7.2799    5.2910    0.0000 C   0  0  0  0  0  0  0  0  0  0  0  0
    8.0748    6.5631    0.0000 C   0  0  0  0  0  0  0  0  0  0  0  0
    9.5739    6.5108    0.0000 S   0  0  0  0  0  0  0  0  0  0  0  0
   11.0729    6.4584    0.0000 N   0  0  0  0  0  0  0  0  0  0  0  0
    9.6262    8.0099    0.0000 O   0  0  0  0  0  0  0  0  0  0  0  0
    9.5215    5.0117    0.0000 O   0  0  0  0  0  0  0  0  0  0  0  0
    5.0766    6.6678    0.0000 N   0  0  0  0  0  0  0  0  0  0  0  0
    5.8715    7.9399    0.0000 C   0  0  0  0  0  0  0  0  0  0  0  0
    7.3706    7.8875    0.0000 O   0  0  0  0  0  0  0  0  0  0  0  0
    5.1673    9.2643    0.0000 C   0  0  0  0  0  0  0  0  0  0  0  0
    5.9621   10.5364    0.0000 C   0  0  0  0  0  0  0  0  0  0  0  0
    5.2579   11.8608    0.0000 C   0  0  0  0  0  0  0  0  0  0  0  0
    3.7588   11.9132    0.0000 C   0  0  0  0  0  0  0  0  0  0  0  0
    3.0546   13.2376    0.0000 Cl  0  0  0  0  0  0  0  0  0  0  0  0
    2.9640   10.6411    0.0000 C   0  0  0  0  0  0  0  0  0  0  0  0
    3.6682    9.3167    0.0000 C   0  0  0  0  0  0  0  0  0  0  0  0
    3.8712    5.0750    0.0000 C   0  0  0  0  0  0  0  0  0  0  0  0
    2.4446    4.6115    0.0000 C   0  0  0  0  0  0  0  0  0  0  0  0
    2.1328    3.1443    0.0000 N   0  0  0  0  0  0  0  0  0  0  0  0
    0.7062    2.6807    0.0000 C   0  0  0  0  0  0  0  0  0  0  0  0
   -0.4086    3.6844    0.0000 N   0  0  0  0  0  0  0  0  0  0  0  0
   -1.8351    3.2209    0.0000 C   0  0  0  0  0  0  0  0  0  0  0  0
   -2.1470    1.7537    0.0000 N   0  0  0  0  0  0  0  0  0  0  0  0
   -1.0323    0.7500    0.0000 C   0  0  0  0  0  0  0  0  0  0  0  0
    0.3943    1.2135    0.0000 C   0  0  0  0  0  0  0  0  0  0  0  0
    1.2760    0.0000    0.0000 C   0  0  0  0  0  0  0  0  0  0  0  0
    0.3943   -1.2135    0.0000 C   0  0  0  0  0  0  0  0  0  0  0  0
   -1.0323   -0.7500    0.0000 N   0  0  0  0  0  0  0  0  0  0  0  0
    3.2475    2.1406    0.0000 C   0  0  0  0  0  0  0  0  0  0  0  0
    4.6741    2.6041    0.0000 C   0  0  0  0  0  0  0  0  0  0  0  0
  1  2  1  0
  2  3  1  0
  3  4  1  0
  4  5  1  0
  5  6  1  0
  6  7  1  0
  6  8  2  0
  6  9  2  0
  3 10  1  0
 10 11  1  0
 11 12  2  0
 11 13  1  0
 13 14  2  0
 14 15  1  0
 15 16  2  0
 16 17  1  0
 16 18  1  0
 18 19  2  0
  2 20  1  0
 20 21  1  0
 21 22  1  0
 22 23  1  0
 23 24  2  0
 24 25  1  0
 25 26  2  0
 26 27  1  0
 27 28  2  0
 28 29  1  0
 29 30  2  0
 30 31  1  0
 22 32  1  0
 32 33  1  0
 33  2  1  0
 19 13  1  0
 28 23  1  0
 31 27  1  0
M  END

