
     RDKit          2D

 34 38  0  0  0  0  0  0  0  0999 V2000
    0.2401   -3.9779    0.0000 C   0  0  0  0  0  0  0  0  0  0  0  0
   -0.6237   -7.7620    0.0000 C   0  0  0  0  0  0  0  0  0  0  0  0
   -1.9941   -7.1518    0.0000 N   0  0  0  0  0  0  0  0  0  0  0  0
   -1.8373   -5.6601    0.0000 C   0  0  0  0  0  0  0  0  0  0  0  0
   -0.3700   -5.3482    0.0000 N   0  0  0  0  0  0  0  0  0  0  0  0
    0.3800   -6.6472    0.0000 N   0  0  0  0  0  0  0  0  0  0  0  0
   -3.7548   -2.1855    0.0000 C   0  0  0  0  0  0  0  0  0  0  0  0
   -5.1814   -2.6490    0.0000 C   0  0  0  0  0  0  0  0  0  0  0  0
   -5.4933   -4.1162    0.0000 N   0  0  0  0  0  0  0  0  0  0  0  0
   -4.3786   -5.1199    0.0000 C   0  0  0  0  0  0  0  0  0  0  0  0
   -2.9520   -4.6564    0.0000 C   0  0  0  0  0  0  0  0  0  0  0  0
   -2.6401   -3.1891    0.0000 N   0  0  0  0  0  0  0  0  0  0  0  0
   -4.6904   -6.5871    0.0000 N   0  0  0  0  0  0  0  0  0  0  0  0
   -3.6867   -7.7018    0.0000 N   0  0  0  0  0  0  0  0  0  0  0  0
   -4.4367   -9.0009    0.0000 N   0  0  0  0  0  0  0  0  0  0  0  0
   -5.9040   -8.6890    0.0000 C   0  0  0  0  0  0  0  0  0  0  0  0
   -7.1175   -9.5707    0.0000 C   0  0  0  0  0  0  0  0  0  0  0  0
   -8.4878   -8.9606    0.0000 C   0  0  0  0  0  0  0  0  0  0  0  0
   -8.6446   -7.4688    0.0000 C   0  0  0  0  0  0  0  0  0  0  0  0
   -7.4311   -6.5871    0.0000 C   0  0  0  0  0  0  0  0  0  0  0  0
   -6.0607   -7.1972    0.0000 C   0  0  0  0  0  0  0  0  0  0  0  0
   -3.4430   -0.7182    0.0000 N   0  0  0  0  0  0  0  0  0  0  0  0
    0.3119  -12.1636    0.0000 N   0  0  0  0  0  0  0  0  0  0  0  0
   -1.1147  -11.7001    0.0000 C   0  0  0  0  0  0  0  0  0  0  0  0
   -1.4266  -10.2329    0.0000 C   0  0  0  0  0  0  0  0  0  0  0  0
   -0.3119   -9.2292    0.0000 C   0  0  0  0  0  0  0  0  0  0  0  0
    1.1147   -9.6927    0.0000 C   0  0  0  0  0  0  0  0  0  0  0  0
    1.4266  -11.1599    0.0000 C   0  0  0  0  0  0  0  0  0  0  0  0
   -1.2938  -17.1055    0.0000 C   0  0  0  0  0  0  0  0  0  0  0  0
   -0.1791  -16.1018    0.0000 N   0  0  0  0  0  0  0  0  0  0  0  0
    1.2475  -16.5653    0.0000 C   0  0  0  0  0  0  0  0  0  0  0  0
   -0.4910  -14.6345    0.0000 C   0  0  0  0  0  0  0  0  0  0  0  0
    0.6237  -13.6308    0.0000 C   0  0  0  0  0  0  0  0  0  0  0  0
    2.0503  -14.0944    0.0000 O   0  0  0  0  0  0  0  0  0  0  0  0
  2  3  1  0
  3  4  2  0
  4  5  1  0
  5  6  1  0
  6  2  2  0
  7  8  2  0
  8  9  1  0
  9 10  2  0
 10 11  1  0
 11 12  2  0
 12  7  1  0
 13 14  1  0
 14 15  2  0
 15 16  1  0
 16 17  2  0
 17 18  1  0
 18 19  2  0
 19 20  1  0
 20 21  2  0
 21 13  1  0
 21 16  1  0
 23 24  1  0
 24 25  1  0
 25 26  1  0
 26 27  1  0
 27 28  1  0
 28 23  1  0
 29 30  1  0
 30 31  1  0
 30 32  1  0
 32 33  1  0
 33 34  2  0
  1  5  1  0
  4 11  1  0
 10 13  1  0
  7 22  1  0
  2 26  1  0
 23 33  1  0
M  END

