
     RDKit          2D

 45 49  0  0  0  0  0  0  0  0999 V2000
    1.0777    1.3515    0.0000 N   0  0  0  0  0  0  0  0  0  0  0  0
    1.7286    0.0000    0.0000 C   0  0  0  0  0  0  0  0  0  0  0  0
    1.0777   -1.3515    0.0000 C   0  0  0  0  0  0  0  0  0  0  0  0
   -0.3846   -1.6852    0.0000 C   0  0  0  0  0  0  0  0  0  0  0  0
   -1.5574   -0.7500    0.0000 O   0  0  0  0  0  0  0  0  0  0  0  0
   -1.5574    0.7500    0.0000 C   0  0  0  0  0  0  0  0  0  0  0  0
   -0.3846    1.6852    0.0000 C   0  0  0  0  0  0  0  0  0  0  0  0
    3.4962    2.3006    0.0000 C   0  0  0  0  0  0  0  0  0  0  0  0
    2.0130    2.5242    0.0000 C   0  0  0  0  0  0  0  0  0  0  0  0
    5.9147    3.2498    0.0000 C   0  0  0  0  0  0  0  0  0  0  0  0
    6.8499    4.4226    0.0000 C   0  0  0  0  0  0  0  0  0  0  0  0
    6.3019    5.8189    0.0000 C   0  0  0  0  0  0  0  0  0  0  0  0
    4.8187    6.0424    0.0000 C   0  0  0  0  0  0  0  0  0  0  0  0
    3.8835    4.8697    0.0000 C   0  0  0  0  0  0  0  0  0  0  0  0
    4.4315    3.4734    0.0000 C   0  0  0  0  0  0  0  0  0  0  0  0
    9.2627    8.3287    0.0000 C   0  0  0  0  0  0  0  0  0  0  0  0
    8.0900    9.2639    0.0000 C   0  0  0  0  0  0  0  0  0  0  0  0
    6.8381    8.4376    0.0000 N   0  0  0  0  0  0  0  0  0  0  0  0
    7.2372    6.9916    0.0000 C   0  0  0  0  0  0  0  0  0  0  0  0
    8.7357    6.9243    0.0000 N   0  0  0  0  0  0  0  0  0  0  0  0
    0.4835   14.9850    0.0000 F   0  0  0  0  0  0  0  0  0  0  0  0
    1.8879   14.4580    0.0000 C   0  0  0  0  0  0  0  0  0  0  0  0
    2.1336   12.9782    0.0000 C   0  0  0  0  0  0  0  0  0  0  0  0
    3.5380   12.4512    0.0000 O   0  0  0  0  0  0  0  0  0  0  0  0
    3.7837   10.9714    0.0000 C   0  0  0  0  0  0  0  0  0  0  0  0
    5.1880   10.4444    0.0000 C   0  0  0  0  0  0  0  0  0  0  0  0
    5.4338    8.9646    0.0000 O   0  0  0  0  0  0  0  0  0  0  0  0
   10.7087    8.7277    0.0000 F   0  0  0  0  0  0  0  0  0  0  0  0
    7.5587   -0.9391    0.0000 N   0  0  0  0  0  0  0  0  0  0  0  0
    8.4940    0.2336    0.0000 C   0  0  0  0  0  0  0  0  0  0  0  0
    7.9460    1.6299    0.0000 C   0  0  0  0  0  0  0  0  0  0  0  0
    6.4627    1.8535    0.0000 C   0  0  0  0  0  0  0  0  0  0  0  0
    5.5275    0.6808    0.0000 C   0  0  0  0  0  0  0  0  0  0  0  0
    6.0755   -0.7155    0.0000 C   0  0  0  0  0  0  0  0  0  0  0  0
    9.5900   -2.5590    0.0000 C   0  0  0  0  0  0  0  0  0  0  0  0
   10.1380   -3.9553    0.0000 C   0  0  0  0  0  0  0  0  0  0  0  0
    9.2028   -5.1280    0.0000 N   0  0  0  0  0  0  0  0  0  0  0  0
    7.7195   -4.9045    0.0000 C   0  0  0  0  0  0  0  0  0  0  0  0
    7.1715   -3.5082    0.0000 N   0  0  0  0  0  0  0  0  0  0  0  0
    8.1068   -2.3354    0.0000 C   0  0  0  0  0  0  0  0  0  0  0  0
   12.7173   -6.9715    0.0000 N   0  0  0  0  0  0  0  0  0  0  0  0
   12.1693   -5.5752    0.0000 C   0  0  0  0  0  0  0  0  0  0  0  0
   11.6213   -4.1789    0.0000 C   0  0  0  0  0  0  0  0  0  0  0  0
   12.0085   -1.6098    0.0000 C   0  0  0  0  0  0  0  0  0  0  0  0
   10.5252   -1.3862    0.0000 C   0  0  0  0  0  0  0  0  0  0  0  0
  1  2  1  0
  2  3  1  0
  3  4  1  0
  4  5  1  0
  5  6  1  0
  6  7  1  0
  7  1  1  0
  8  9  1  0
 10 11  2  0
 11 12  1  0
 12 13  2  0
 13 14  1  0
 14 15  2  0
 15 10  1  0
 16 17  2  0
 17 18  1  0
 18 19  1  0
 19 20  2  0
 20 16  1  0
 21 22  1  0
 22 23  1  0
 23 24  1  0
 24 25  1  0
 25 26  1  0
 26 27  1  0
 29 30  1  0
 30 31  1  0
 31 32  1  0
 32 33  1  0
 33 34  1  0
 34 29  1  0
 35 36  2  0
 36 37  1  0
 37 38  2  0
 38 39  1  0
 39 40  2  0
 40 35  1  0
 41 42  3  0
 42 43  1  0
 44 45  1  0
  1  9  1  0
  8 15  1  0
 12 19  1  0
 18 27  1  0
 16 28  1  0
 10 32  1  0
 29 40  1  0
 36 43  1  0
 35 45  1  0
M  END

