
     RDKit          2D

 31 34  0  0  0  0  0  0  0  0999 V2000
   13.5119    6.6464    0.0000 C   0  0  0  0  0  0  0  0  0  0  0  0
   12.8077    7.9708    0.0000 N   0  0  0  0  0  0  0  0  0  0  0  0
   11.3086    8.0232    0.0000 C   0  0  0  0  0  0  0  0  0  0  0  0
   10.5137    6.7511    0.0000 C   0  0  0  0  0  0  0  0  0  0  0  0
    9.0146    6.8034    0.0000 C   0  0  0  0  0  0  0  0  0  0  0  0
    8.3104    8.1279    0.0000 C   0  0  0  0  0  0  0  0  0  0  0  0
    6.8114    8.1802    0.0000 C   0  0  0  0  0  0  0  0  0  0  0  0
    6.0165    6.9081    0.0000 N   0  0  0  0  0  0  0  0  0  0  0  0
    4.5174    6.9605    0.0000 C   0  0  0  0  0  0  0  0  0  0  0  0
    3.8132    8.2849    0.0000 O   0  0  0  0  0  0  0  0  0  0  0  0
    3.7225    5.6884    0.0000 N   0  0  0  0  0  0  0  0  0  0  0  0
    4.4267    4.3640    0.0000 C   0  0  0  0  0  0  0  0  0  0  0  0
    3.6318    3.0919    0.0000 C   0  0  0  0  0  0  0  0  0  0  0  0
    2.1328    3.1443    0.0000 C   0  0  0  0  0  0  0  0  0  0  0  0
    2.3415    1.6589    0.0000 N   0  0  0  0  0  0  0  0  0  0  0  0
    0.7062    2.6807    0.0000 C   0  0  0  0  0  0  0  0  0  0  0  0
   -0.4086    3.6844    0.0000 N   0  0  0  0  0  0  0  0  0  0  0  0
   -1.8351    3.2209    0.0000 C   0  0  0  0  0  0  0  0  0  0  0  0
   -2.1470    1.7537    0.0000 N   0  0  0  0  0  0  0  0  0  0  0  0
   -1.0323    0.7500    0.0000 C   0  0  0  0  0  0  0  0  0  0  0  0
    0.3943    1.2135    0.0000 C   0  0  0  0  0  0  0  0  0  0  0  0
    1.2760    0.0000    0.0000 C   0  0  0  0  0  0  0  0  0  0  0  0
    0.3943   -1.2135    0.0000 C   0  0  0  0  0  0  0  0  0  0  0  0
   -1.0323   -0.7500    0.0000 N   0  0  0  0  0  0  0  0  0  0  0  0
    1.4285    4.4687    0.0000 C   0  0  0  0  0  0  0  0  0  0  0  0
    2.2234    5.7408    0.0000 C   0  0  0  0  0  0  0  0  0  0  0  0
    6.1071    9.5046    0.0000 C   0  0  0  0  0  0  0  0  0  0  0  0
    6.9020   10.7767    0.0000 N   0  0  0  0  0  0  0  0  0  0  0  0
    4.6081    9.5570    0.0000 O   0  0  0  0  0  0  0  0  0  0  0  0
    9.1053    9.3999    0.0000 C   0  0  0  0  0  0  0  0  0  0  0  0
   10.6044    9.3476    0.0000 N   0  0  0  0  0  0  0  0  0  0  0  0
  1  2  1  0
  2  3  1  0
  3  4  2  0
  4  5  1  0
  5  6  2  0
  6  7  1  0
  7  8  1  0
  8  9  1  0
  9 10  2  0
  9 11  1  0
 11 12  1  0
 12 13  1  0
 13 14  1  0
 14 15  1  0
 14 16  1  0
 16 17  2  0
 17 18  1  0
 18 19  2  0
 19 20  1  0
 20 21  2  0
 21 22  1  0
 22 23  2  0
 23 24  1  0
 14 25  1  0
 25 26  1  0
  7 27  1  0
 27 28  1  0
 27 29  2  0
  6 30  1  0
 30 31  2  0
 31  3  1  0
 26 11  1  0
 21 16  1  0
 24 20  1  0
M  END

