
     RDKit          2D

 35 41  0  0  0  0  0  0  0  0999 V2000
   -2.3313   -3.0000    0.0000 N   0  0  0  0  0  0  0  0  0  0  0  0
   -2.3313   -1.5000    0.0000 C   0  0  0  0  0  0  0  0  0  0  0  0
   -3.6304   -0.7500    0.0000 N   0  0  0  0  0  0  0  0  0  0  0  0
   -3.6304    0.7500    0.0000 C   0  0  0  0  0  0  0  0  0  0  0  0
   -4.9294    1.5000    0.0000 N   0  0  0  0  0  0  0  0  0  0  0  0
   -5.0862    2.9918    0.0000 C   0  0  0  0  0  0  0  0  0  0  0  0
   -6.5534    3.3037    0.0000 C   0  0  0  0  0  0  0  0  0  0  0  0
   -7.3034    2.0046    0.0000 C   0  0  0  0  0  0  0  0  0  0  0  0
   -6.2997    0.8899    0.0000 C   0  0  0  0  0  0  0  0  0  0  0  0
   -5.0862   -0.0082    0.0000 C   0  0  0  0  0  0  0  0  0  0  0  0
   -3.7872    0.7418    0.0000 C   0  0  0  0  0  0  0  0  0  0  0  0
   -2.4881   -0.0082    0.0000 C   0  0  0  0  0  0  0  0  0  0  0  0
   -1.0462    0.4052    0.0000 O   0  0  0  0  0  0  0  0  0  0  0  0
   -2.4881   -1.5082    0.0000 C   0  0  0  0  0  0  0  0  0  0  0  0
   -1.2746   -2.3899    0.0000 N   0  0  0  0  0  0  0  0  0  0  0  0
   -1.7381   -3.8165    0.0000 N   0  0  0  0  0  0  0  0  0  0  0  0
   -3.2381   -3.8165    0.0000 C   0  0  0  0  0  0  0  0  0  0  0  0
   -3.7016   -2.3899    0.0000 N   0  0  0  0  0  0  0  0  0  0  0  0
   -3.7872    2.2418    0.0000 C   0  0  0  0  0  0  0  0  0  0  0  0
   -2.3313    1.5000    0.0000 C   0  0  0  0  0  0  0  0  0  0  0  0
   -1.0323    0.7500    0.0000 N   0  0  0  0  0  0  0  0  0  0  0  0
    0.3943    1.2135    0.0000 C   0  0  0  0  0  0  0  0  0  0  0  0
    0.8578    2.6401    0.0000 C   0  0  0  0  0  0  0  0  0  0  0  0
   -0.0239    3.8536    0.0000 N   0  0  0  0  0  0  0  0  0  0  0  0
    0.8578    5.0672    0.0000 N   0  0  0  0  0  0  0  0  0  0  0  0
    0.3943    6.4937    0.0000 N   0  0  0  0  0  0  0  0  0  0  0  0
   -1.0323    6.9573    0.0000 C   0  0  0  0  0  0  0  0  0  0  0  0
   -1.0323    8.4573    0.0000 C   0  0  0  0  0  0  0  0  0  0  0  0
    0.3943    8.9208    0.0000 C   0  0  0  0  0  0  0  0  0  0  0  0
    1.2760    7.7073    0.0000 C   0  0  0  0  0  0  0  0  0  0  0  0
    2.2844    4.6036    0.0000 C   0  0  0  0  0  0  0  0  0  0  0  0
    2.2844    3.1036    0.0000 C   0  0  0  0  0  0  0  0  0  0  0  0
    1.2760    0.0000    0.0000 C   0  0  0  0  0  0  0  0  0  0  0  0
    0.3943   -1.2135    0.0000 N   0  0  0  0  0  0  0  0  0  0  0  0
   -1.0323   -0.7500    0.0000 C   0  0  0  0  0  0  0  0  0  0  0  0
  1  2  1  0
  2  3  2  0
  3  4  1  0
  4  5  1  0
  5  6  1  0
  6  7  1  1
  7  8  1  0
  9  8  1  1
  9 10  1  0
 10 11  1  0
 11 12  1  6
 12 13  2  0
 12 14  1  0
 14 15  2  0
 15 16  1  0
 16 17  2  0
 17 18  1  0
 11 19  1  0
  4 20  2  0
 20 21  1  0
 21 22  1  0
 22 23  1  0
 23 24  2  0
 24 25  1  0
 25 26  1  0
 26 27  1  0
 27 28  2  0
 28 29  1  0
 29 30  2  0
 25 31  1  0
 31 32  2  0
 22 33  2  0
 33 34  1  0
 34 35  2  0
 35  2  1  0
  9  5  1  0
 18 14  1  0
 35 21  1  0
 19  6  1  0
 32 23  1  0
 30 26  1  0
M  END

