
     RDKit          2D

 38 42  0  0  0  0  0  0  0  0999 V2000
    3.0000    2.5981    0.0000 O   0  0  0  0  0  0  0  0  0  0  0  0
    1.5000    2.5981    0.0000 N   0  0  0  0  0  4  0  0  0  0  0  0
    0.7500    3.8971    0.0000 O   0  0  0  0  0  1  0  0  0  0  0  0
    1.5000    0.0000    0.0000 C   0  0  0  0  0  0  0  0  0  0  0  0
    0.7500   -1.2990    0.0000 N   0  0  0  0  0  0  0  0  0  0  0  0
   -0.7500   -1.2990    0.0000 C   0  0  0  0  0  0  0  0  0  0  0  0
   -1.5000    0.0000    0.0000 N   0  0  0  0  0  0  0  0  0  0  0  0
   -0.7500    1.2990    0.0000 C   0  0  0  0  0  0  0  0  0  0  0  0
    0.7500    1.2990    0.0000 C   0  0  0  0  0  0  0  0  0  0  0  0
   -3.0000    5.1962    0.0000 N   0  0  0  0  0  0  0  0  0  0  0  0
   -3.7500    3.8971    0.0000 C   0  0  0  0  0  0  0  0  0  0  0  0
   -3.0000    2.5981    0.0000 C   0  0  0  0  0  0  0  0  0  0  0  0
   -1.5000    2.5981    0.0000 C   0  0  0  0  0  0  0  0  0  0  0  0
   -0.7500    3.8971    0.0000 C   0  0  0  0  0  0  0  0  0  0  0  0
   -1.5000    5.1962    0.0000 C   0  0  0  0  0  0  0  0  0  0  0  0
   -5.2418    6.6520    0.0000 C   0  0  0  0  0  0  0  0  0  0  0  0
   -5.5537    8.1192    0.0000 N   0  0  0  0  0  0  0  0  0  0  0  0
   -4.2546    8.8692    0.0000 C   0  0  0  0  0  0  0  0  0  0  0  0
   -3.1399    7.8655    0.0000 C   0  0  0  0  0  0  0  0  0  0  0  0
   -3.7500    6.4952    0.0000 N   0  0  0  0  0  0  0  0  0  0  0  0
   -2.7275   10.9711    0.0000 C   0  0  0  0  0  0  0  0  0  0  0  0
   -4.0978   10.3610    0.0000 C   0  0  0  0  0  0  0  0  0  0  0  0
   -2.5707   12.4629    0.0000 N   0  0  0  0  0  0  0  0  0  0  0  0
   -1.4050   13.4069    0.0000 C   0  0  0  0  0  0  0  0  0  0  0  0
   -2.3490   14.5726    0.0000 C   0  0  0  0  0  0  0  0  0  0  0  0
   -3.5147   13.6286    0.0000 C   0  0  0  0  0  0  0  0  0  0  0  0
   -6.7856    2.9960    0.0000 C   0  0  0  0  0  0  0  0  0  0  0  0
   -8.2529    3.3078    0.0000 C   0  0  0  0  0  0  0  0  0  0  0  0
   -8.7164    4.7344    0.0000 C   0  0  0  0  0  0  0  0  0  0  0  0
   -7.7127    5.8491    0.0000 C   0  0  0  0  0  0  0  0  0  0  0  0
   -6.2455    5.5373    0.0000 C   0  0  0  0  0  0  0  0  0  0  0  0
   -5.7820    4.1107    0.0000 C   0  0  0  0  0  0  0  0  0  0  0  0
   -8.6398    8.7023    0.0000 F   0  0  0  0  0  0  0  0  0  0  0  0
   -8.1762    7.2757    0.0000 C   0  0  0  0  0  0  0  0  0  0  0  0
   -9.6028    6.8122    0.0000 F   0  0  0  0  0  0  0  0  0  0  0  0
   -6.7496    7.7392    0.0000 F   0  0  0  0  0  0  0  0  0  0  0  0
   -6.3221    1.5694    0.0000 F   0  0  0  0  0  0  0  0  0  0  0  0
    3.0000    0.0000    0.0000 N   0  0  0  0  0  0  0  0  0  0  0  0
  1  2  2  0
  2  3  1  0
  4  5  2  0
  5  6  1  0
  6  7  2  0
  7  8  1  0
  8  9  2  0
  9  4  1  0
 10 11  1  0
 11 12  1  0
 12 13  1  0
 13 14  1  0
 14 15  1  0
 15 10  1  0
 16 17  2  0
 17 18  1  0
 18 19  2  0
 19 20  1  0
 20 16  1  0
 21 22  1  0
 23 24  1  0
 24 25  1  0
 25 26  1  0
 26 23  1  0
 27 28  2  0
 28 29  1  0
 29 30  2  0
 30 31  1  0
 31 32  2  0
 32 27  1  0
 33 34  1  0
 34 35  1  0
 34 36  1  0
  2  9  1  0
  8 13  1  0
 10 20  1  0
 18 22  1  0
 21 23  1  0
 16 31  1  0
 30 34  1  0
 27 37  1  0
  4 38  1  0
M  CHG  2   2   1   3  -1
M  END

