
     RDKit          2D

 35 38  0  0  0  0  0  0  0  0999 V2000
   -3.0000   -2.5981    0.0000 F   0  0  0  0  0  0  0  0  0  0  0  0
   -1.5000   -2.5981    0.0000 C   0  0  0  0  0  0  0  0  0  0  0  0
    0.7500   -1.2990    0.0000 C   0  0  0  0  0  0  0  0  0  0  0  0
    1.5000    0.0000    0.0000 N   0  0  0  0  0  0  0  0  0  0  0  0
    0.7500    1.2990    0.0000 C   0  0  0  0  0  0  0  0  0  0  0  0
   -0.7500    1.2990    0.0000 N   0  0  0  0  0  0  0  0  0  0  0  0
   -1.5000    0.0000    0.0000 C   0  0  0  0  0  0  0  0  0  0  0  0
   -0.7500   -1.2990    0.0000 C   0  0  0  0  0  0  0  0  0  0  0  0
   -4.5000    0.0000    0.0000 C   0  0  0  0  0  0  0  0  0  0  0  0
   -3.0000    0.0000    0.0000 C   0  0  0  0  0  0  0  0  0  0  0  0
    3.0000   -5.1962    0.0000 C   0  0  0  0  0  0  0  0  0  0  0  0
    3.7500   -3.8971    0.0000 C   0  0  0  0  0  0  0  0  0  0  0  0
    3.0000   -2.5981    0.0000 C   0  0  0  0  0  0  0  0  0  0  0  0
    1.5000   -2.5981    0.0000 N   0  0  0  0  0  0  0  0  0  0  0  0
    0.7500   -3.8971    0.0000 C   0  0  0  0  0  0  0  0  0  0  0  0
    1.5000   -5.1962    0.0000 C   0  0  0  0  0  0  0  0  0  0  0  0
    3.1399   -7.8655    0.0000 N   0  0  0  0  0  0  0  0  0  0  0  0
    4.2546   -8.8692    0.0000 C   0  0  0  0  0  0  0  0  0  0  0  0
    5.5537   -8.1192    0.0000 C   0  0  0  0  0  0  0  0  0  0  0  0
    5.2418   -6.6520    0.0000 N   0  0  0  0  0  0  0  0  0  0  0  0
    3.7500   -6.4952    0.0000 C   0  0  0  0  0  0  0  0  0  0  0  0
    9.5078   -8.4577    0.0000 C   0  0  0  0  0  0  0  0  0  0  0  0
    9.6646   -9.9495    0.0000 C   0  0  0  0  0  0  0  0  0  0  0  0
    8.4511  -10.8312    0.0000 C   0  0  0  0  0  0  0  0  0  0  0  0
    7.0808  -10.2211    0.0000 N   0  0  0  0  0  0  0  0  0  0  0  0
    6.9240   -8.7293    0.0000 C   0  0  0  0  0  0  0  0  0  0  0  0
    8.1375   -7.8476    0.0000 C   0  0  0  0  0  0  0  0  0  0  0  0
   11.9349   -6.6944    0.0000 F   0  0  0  0  0  0  0  0  0  0  0  0
   10.7213   -7.5761    0.0000 C   0  0  0  0  0  0  0  0  0  0  0  0
   11.6030   -8.7896    0.0000 F   0  0  0  0  0  0  0  0  0  0  0  0
    9.8397   -6.3625    0.0000 F   0  0  0  0  0  0  0  0  0  0  0  0
   -0.7216  -11.3424    0.0000 C   0  0  0  0  0  0  0  0  0  0  0  0
   -0.2581   -9.9158    0.0000 N   0  0  0  0  0  0  0  0  0  0  0  0
    1.2091   -9.6040    0.0000 C   0  0  0  0  0  0  0  0  0  0  0  0
    1.6727   -8.1774    0.0000 C   0  0  0  0  0  0  0  0  0  0  0  0
  1  2  1  0
  3  4  2  0
  4  5  1  0
  5  6  2  0
  6  7  1  0
  7  8  2  0
  8  3  1  0
  9 10  3  0
 11 12  1  0
 12 13  1  0
 13 14  1  0
 14 15  1  0
 15 16  1  0
 16 11  1  0
 17 18  1  0
 18 19  2  0
 19 20  1  0
 20 21  2  0
 21 17  1  0
 22 23  2  0
 23 24  1  0
 24 25  2  0
 25 26  1  0
 26 27  2  0
 27 22  1  0
 28 29  1  0
 29 30  1  0
 29 31  1  0
 32 33  1  0
 33 34  1  0
 34 35  1  0
  2  8  1  0
  7 10  1  0
  3 14  1  0
 11 21  1  0
 19 26  1  0
 22 29  1  0
 17 35  1  0
M  END

