
     RDKit          2D

 28 32  0  0  0  0  0  0  0  0999 V2000
   -4.2749  -10.8253    0.0000 C   0  0  0  0  0  0  0  0  0  0  0  0
   -3.0613   -9.9436    0.0000 S   0  0  0  0  0  0  0  0  0  0  0  0
   -3.9430   -8.7301    0.0000 O   0  0  0  0  0  0  0  0  0  0  0  0
   -2.1797  -11.1572    0.0000 O   0  0  0  0  0  0  0  0  0  0  0  0
   -1.8478   -9.0619    0.0000 C   0  0  0  0  0  0  0  0  0  0  0  0
   -2.0046   -7.5702    0.0000 C   0  0  0  0  0  0  0  0  0  0  0  0
   -0.8899   -6.5665    0.0000 N   0  0  0  0  0  0  0  0  0  0  0  0
   -1.5000   -5.1962    0.0000 N   0  0  0  0  0  0  0  0  0  0  0  0
   -0.7500   -3.8971    0.0000 C   0  0  0  0  0  0  0  0  0  0  0  0
    0.7500   -3.8971    0.0000 C   0  0  0  0  0  0  0  0  0  0  0  0
    1.5000   -2.5981    0.0000 C   0  0  0  0  0  0  0  0  0  0  0  0
    0.7500   -1.2990    0.0000 C   0  0  0  0  0  0  0  0  0  0  0  0
    1.5000    0.0000    0.0000 N   0  0  0  0  0  0  0  0  0  0  0  0
    0.7500    1.2990    0.0000 C   0  0  0  0  0  0  0  0  0  0  0  0
   -0.7500    1.2990    0.0000 N   0  0  0  0  0  0  0  0  0  0  0  0
   -1.5000    0.0000    0.0000 C   0  0  0  0  0  0  0  0  0  0  0  0
   -0.7500   -1.2990    0.0000 C   0  0  0  0  0  0  0  0  0  0  0  0
   -1.5000   -2.5981    0.0000 C   0  0  0  0  0  0  0  0  0  0  0  0
   -2.9918   -5.3529    0.0000 C   0  0  0  0  0  0  0  0  0  0  0  0
   -3.9955   -4.2382    0.0000 N   0  0  0  0  0  0  0  0  0  0  0  0
   -5.4627   -4.5501    0.0000 C   0  0  0  0  0  0  0  0  0  0  0  0
   -6.4664   -3.4354    0.0000 C   0  0  0  0  0  0  0  0  0  0  0  0
   -7.0765   -2.0651    0.0000 C   0  0  0  0  0  0  0  0  0  0  0  0
   -5.9618   -1.0614    0.0000 C   0  0  0  0  0  0  0  0  0  0  0  0
   -4.6627   -1.8114    0.0000 C   0  0  0  0  0  0  0  0  0  0  0  0
   -3.5320   -2.8116    0.0000 C   0  0  0  0  0  0  0  0  0  0  0  0
   -4.9746   -3.2786    0.0000 O   0  0  0  0  0  0  0  0  0  0  0  0
   -3.3037   -6.8202    0.0000 N   0  0  0  0  0  0  0  0  0  0  0  0
  1  2  1  0
  2  3  2  0
  2  4  2  0
  2  5  1  0
  5  6  1  0
  6  7  2  0
  7  8  1  0
  8  9  1  0
  9 10  2  0
 10 11  1  0
 11 12  2  0
 12 13  1  0
 13 14  2  0
 14 15  1  0
 15 16  2  0
 16 17  1  0
 17 18  2  0
  8 19  1  0
 19 20  1  0
 20 21  1  0
 21 22  1  0
 22 23  1  0
 23 24  1  0
 24 25  1  0
 25 26  1  0
 25 27  1  0
 19 28  2  0
 28  6  1  0
 18  9  1  0
 26 20  1  0
 17 12  1  0
 27 22  1  0
M  END

