
     RDKit          2D

 33 37  0  0  0  0  0  0  0  0999 V2000
   -1.7843    5.4484    0.0000 N   0  0  0  0  0  0  0  0  0  0  0  0
   -1.8068    3.9485    0.0000 C   0  0  0  0  0  0  0  0  0  0  0  0
   -3.1169    3.2181    0.0000 O   0  0  0  0  0  0  0  0  0  0  0  0
   -0.5191    3.1792    0.0000 C   0  0  0  0  0  0  0  0  0  0  0  0
    0.8602    3.7687    0.0000 C   0  0  0  0  0  0  0  0  0  0  0  0
    1.8471    2.6391    0.0000 C   0  0  0  0  0  0  0  0  0  0  0  0
    3.3411    2.7736    0.0000 C   0  0  0  0  0  0  0  0  0  0  0  0
    4.2045    1.5470    0.0000 C   0  0  0  0  0  0  0  0  0  0  0  0
    5.6984    1.6815    0.0000 N   0  0  0  0  0  0  0  0  0  0  0  0
    6.3290    3.0425    0.0000 C   0  0  0  0  0  0  0  0  0  0  0  0
    5.4656    4.2691    0.0000 C   0  0  0  0  0  0  0  0  0  0  0  0
    6.0961    5.6301    0.0000 O   0  0  0  0  0  0  0  0  0  0  0  0
    7.5901    5.7646    0.0000 C   0  0  0  0  0  0  0  0  0  0  0  0
    8.2206    7.1256    0.0000 C   0  0  0  0  0  0  0  0  0  0  0  0
    7.3572    8.3522    0.0000 N   0  0  0  0  0  0  0  0  0  0  0  0
    9.7146    7.2601    0.0000 C   0  0  0  0  0  0  0  0  0  0  0  0
   10.3451    8.6211    0.0000 C   0  0  0  0  0  0  0  0  0  0  0  0
    9.4817    9.8477    0.0000 C   0  0  0  0  0  0  0  0  0  0  0  0
   10.1122   11.2087    0.0000 C   0  0  0  0  0  0  0  0  0  0  0  0
   11.6062   11.3432    0.0000 C   0  0  0  0  0  0  0  0  0  0  0  0
   12.4696   10.1166    0.0000 C   0  0  0  0  0  0  0  0  0  0  0  0
   11.8390    8.7556    0.0000 C   0  0  0  0  0  0  0  0  0  0  0  0
   12.9386    7.7353    0.0000 N   0  0  0  0  0  0  0  0  0  0  0  0
   14.2487    8.4658    0.0000 C   0  0  0  0  0  0  0  0  0  0  0  0
   13.9589    9.9375    0.0000 C   0  0  0  0  0  0  0  0  0  0  0  0
    3.9716    4.1346    0.0000 C   0  0  0  0  0  0  0  0  0  0  0  0
    1.0777    1.3515    0.0000 C   0  0  0  0  0  0  0  0  0  0  0  0
    1.7286    0.0000    0.0000 C   0  0  0  0  0  0  0  0  0  0  0  0
    1.0777   -1.3515    0.0000 C   0  0  0  0  0  0  0  0  0  0  0  0
   -0.3846   -1.6852    0.0000 C   0  0  0  0  0  0  0  0  0  0  0  0
   -1.5574   -0.7500    0.0000 C   0  0  0  0  0  0  0  0  0  0  0  0
   -1.5574    0.7500    0.0000 C   0  0  0  0  0  0  0  0  0  0  0  0
   -0.3846    1.6852    0.0000 C   0  0  0  0  0  0  0  0  0  0  0  0
  1  2  1  0
  2  3  2  0
  2  4  1  0
  4  5  2  0
  5  6  1  0
  6  7  1  0
  7  8  2  0
  8  9  1  0
  9 10  2  0
 10 11  1  0
 11 12  1  0
 12 13  1  0
 13 14  1  0
 14 15  1  1
 14 16  1  0
 16 17  1  0
 17 18  2  0
 18 19  1  0
 19 20  2  0
 20 21  1  0
 21 22  2  0
 22 23  1  0
 23 24  1  0
 24 25  2  0
 11 26  2  0
  6 27  2  0
 27 28  1  0
 28 29  2  0
 29 30  1  0
 30 31  2  0
 31 32  1  0
 32 33  2  0
 33  4  1  0
 26  7  1  0
 33 27  1  0
 22 17  1  0
 25 21  1  0
M  END

