
     RDKit          2D

 29 33  0  0  0  0  0  0  0  0999 V2000
   -1.9798    8.7516    0.0000 C   0  0  0  0  0  0  0  0  0  0  0  0
   -3.4716    8.9084    0.0000 C   0  0  0  0  0  0  0  0  0  0  0  0
   -4.2216   10.2075    0.0000 C   0  0  0  0  0  0  0  0  0  0  0  0
   -5.6888    9.8956    0.0000 C   0  0  0  0  0  0  0  0  0  0  0  0
   -5.8456    8.4038    0.0000 C   0  0  0  0  0  0  0  0  0  0  0  0
   -4.4752    7.7937    0.0000 N   0  0  0  0  0  0  0  0  0  0  0  0
   -4.1634    6.3265    0.0000 C   0  0  0  0  0  0  0  0  0  0  0  0
   -2.7931    5.7164    0.0000 N   0  0  0  0  0  0  0  0  0  0  0  0
   -2.9499    4.2246    0.0000 N   0  0  0  0  0  0  0  0  0  0  0  0
   -1.8351    3.2209    0.0000 C   0  0  0  0  0  0  0  0  0  0  0  0
   -0.4086    3.6844    0.0000 C   0  0  0  0  0  0  0  0  0  0  0  0
    0.7062    2.6807    0.0000 C   0  0  0  0  0  0  0  0  0  0  0  0
    0.3943    1.2135    0.0000 C   0  0  0  0  0  0  0  0  0  0  0  0
    1.2760    0.0000    0.0000 C   0  0  0  0  0  0  0  0  0  0  0  0
    0.3943   -1.2135    0.0000 C   0  0  0  0  0  0  0  0  0  0  0  0
   -1.0323   -0.7500    0.0000 N   0  0  0  0  0  0  0  0  0  0  0  0
   -1.0323    0.7500    0.0000 C   0  0  0  0  0  0  0  0  0  0  0  0
   -2.1470    1.7537    0.0000 C   0  0  0  0  0  0  0  0  0  0  0  0
   -4.4171    3.9127    0.0000 C   0  0  0  0  0  0  0  0  0  0  0  0
   -5.0272    2.5424    0.0000 C   0  0  0  0  0  0  0  0  0  0  0  0
   -6.3262    3.2924    0.0000 S   0  0  0  0  0  0  0  0  0  0  0  0
   -7.6253    4.0424    0.0000 C   0  0  0  0  0  0  0  0  0  0  0  0
   -5.9542    4.5902    0.0000 O   0  0  0  0  0  0  0  0  0  0  0  0
   -7.0762    1.9934    0.0000 O   0  0  0  0  0  0  0  0  0  0  0  0
   -5.9089    1.3289    0.0000 C   0  0  0  0  0  0  0  0  0  0  0  0
   -5.0272    0.1154    0.0000 C   0  0  0  0  0  0  0  0  0  0  0  0
   -3.6006    0.5789    0.0000 C   0  0  0  0  0  0  0  0  0  0  0  0
   -3.6006    2.0789    0.0000 C   0  0  0  0  0  0  0  0  0  0  0  0
   -5.1671    5.2118    0.0000 N   0  0  0  0  0  0  0  0  0  0  0  0
  2  1  1  1
  2  3  1  0
  3  4  1  0
  4  5  1  0
  5  6  1  0
  6  7  1  0
  7  8  2  0
  8  9  1  0
  9 10  1  0
 10 11  2  0
 11 12  1  0
 12 13  2  0
 13 14  1  0
 14 15  2  0
 15 16  1  0
 16 17  1  0
 17 18  2  0
  9 19  1  0
 19 20  1  0
 20 21  1  0
 21 22  1  0
 21 23  2  0
 21 24  2  0
 20 25  1  0
 25 26  1  0
 26 27  1  0
 27 28  1  0
 19 29  2  0
  6  2  1  0
 29  7  1  0
 18 10  1  0
 28 20  1  0
 17 13  1  0
M  END

