
     RDKit          2D

 33 37  0  0  0  0  0  0  0  0999 V2000
   -4.6810  -22.4928    0.0000 C   0  0  0  0  0  0  0  0  0  0  0  0
   -4.0709  -21.1225    0.0000 O   0  0  0  0  0  0  0  0  0  0  0  0
   -4.9525  -19.9090    0.0000 C   0  0  0  0  0  0  0  0  0  0  0  0
   -6.4443  -20.0658    0.0000 C   0  0  0  0  0  0  0  0  0  0  0  0
   -7.3260  -18.8522    0.0000 C   0  0  0  0  0  0  0  0  0  0  0  0
   -6.7159  -17.4819    0.0000 C   0  0  0  0  0  0  0  0  0  0  0  0
   -7.3260  -16.1116    0.0000 N   0  0  0  0  0  0  0  0  0  0  0  0
   -6.2113  -15.1079    0.0000 C   0  0  0  0  0  0  0  0  0  0  0  0
   -6.3681  -13.6161    0.0000 N   0  0  0  0  0  0  0  0  0  0  0  0
   -5.1546  -12.7344    0.0000 C   0  0  0  0  0  0  0  0  0  0  0  0
   -3.7842  -13.3446    0.0000 O   0  0  0  0  0  0  0  0  0  0  0  0
   -5.3113  -11.2427    0.0000 C   0  0  0  0  0  0  0  0  0  0  0  0
   -4.0978  -10.3610    0.0000 S   0  0  0  0  0  0  0  0  0  0  0  0
   -4.2546   -8.8692    0.0000 C   0  0  0  0  0  0  0  0  0  0  0  0
   -5.5537   -8.1192    0.0000 N   0  0  0  0  0  0  0  0  0  0  0  0
   -5.2418   -6.6520    0.0000 N   0  0  0  0  0  0  0  0  0  0  0  0
   -3.7500   -6.4952    0.0000 C   0  0  0  0  0  0  0  0  0  0  0  0
   -3.0000   -5.1962    0.0000 C   0  0  0  0  0  0  0  0  0  0  0  0
   -1.5000   -5.1962    0.0000 O   0  0  0  0  0  0  0  0  0  0  0  0
   -0.7500   -3.8971    0.0000 C   0  0  0  0  0  0  0  0  0  0  0  0
    0.7500   -3.8971    0.0000 C   0  0  0  0  0  0  0  0  0  0  0  0
    1.5000   -2.5981    0.0000 C   0  0  0  0  0  0  0  0  0  0  0  0
    0.7500   -1.2990    0.0000 C   0  0  0  0  0  0  0  0  0  0  0  0
    1.5000    0.0000    0.0000 C   0  0  0  0  0  0  0  0  0  0  0  0
    0.7500    1.2990    0.0000 C   0  0  0  0  0  0  0  0  0  0  0  0
   -0.7500    1.2990    0.0000 C   0  0  0  0  0  0  0  0  0  0  0  0
   -1.5000    0.0000    0.0000 C   0  0  0  0  0  0  0  0  0  0  0  0
   -0.7500   -1.2990    0.0000 C   0  0  0  0  0  0  0  0  0  0  0  0
   -1.5000   -2.5981    0.0000 C   0  0  0  0  0  0  0  0  0  0  0  0
   -3.1399   -7.8655    0.0000 O   0  0  0  0  0  0  0  0  0  0  0  0
   -4.9122  -15.8579    0.0000 S   0  0  0  0  0  0  0  0  0  0  0  0
   -5.2241  -17.3251    0.0000 C   0  0  0  0  0  0  0  0  0  0  0  0
   -4.3424  -18.5387    0.0000 C   0  0  0  0  0  0  0  0  0  0  0  0
  1  2  1  0
  2  3  1  0
  3  4  2  0
  4  5  1  0
  5  6  2  0
  6  7  1  0
  7  8  2  0
  8  9  1  0
  9 10  1  0
 10 11  2  0
 10 12  1  0
 12 13  1  0
 13 14  1  0
 14 15  2  0
 15 16  1  0
 16 17  2  0
 17 18  1  0
 18 19  1  0
 19 20  1  0
 20 21  2  0
 21 22  1  0
 22 23  2  0
 23 24  1  0
 24 25  1  0
 25 26  1  0
 26 27  1  0
 27 28  1  0
 28 29  2  0
 17 30  1  0
  8 31  1  0
 31 32  1  0
 32 33  2  0
 33  3  1  0
 32  6  1  0
 30 14  1  0
 29 20  1  0
 28 23  1  0
M  END

