
     RDKit          2D

 29 32  0  0  0  0  0  0  0  0999 V2000
    3.5260    1.2990    0.0000 C   0  0  0  0  0  0  0  0  0  0  0  0
    2.7760    0.0000    0.0000 C   0  0  0  0  0  0  0  0  0  0  0  0
    1.2760    0.0000    0.0000 N   0  0  0  0  0  0  0  0  0  0  0  0
    0.3943    1.2135    0.0000 C   0  0  0  0  0  0  0  0  0  0  0  0
   -1.0323    0.7500    0.0000 C   0  0  0  0  0  0  0  0  0  0  0  0
   -2.2458    1.6317    0.0000 C   0  0  0  0  0  0  0  0  0  0  0  0
   -2.0890    3.1235    0.0000 N   0  0  0  0  0  0  0  0  0  0  0  0
   -3.6161    1.0216    0.0000 O   0  0  0  0  0  0  0  0  0  0  0  0
   -1.0323   -0.7500    0.0000 C   0  0  0  0  0  0  0  0  0  0  0  0
    0.3943   -1.2135    0.0000 C   0  0  0  0  0  0  0  0  0  0  0  0
    0.8578   -2.6401    0.0000 N   0  0  0  0  0  0  0  0  0  0  0  0
   -0.1459   -3.7548    0.0000 C   0  0  0  0  0  0  0  0  0  0  0  0
   -1.6131   -3.4430    0.0000 O   0  0  0  0  0  0  0  0  0  0  0  0
    0.3177   -5.1814    0.0000 C   0  0  0  0  0  0  0  0  0  0  0  0
    1.7442   -5.6449    0.0000 N   0  0  0  0  0  0  0  0  0  0  0  0
    1.7442   -7.1449    0.0000 C   0  0  0  0  0  0  0  0  0  0  0  0
    2.9578   -8.0266    0.0000 C   0  0  0  0  0  0  0  0  0  0  0  0
    0.3177   -7.6085    0.0000 C   0  0  0  0  0  0  0  0  0  0  0  0
   -0.1459   -9.0350    0.0000 C   0  0  0  0  0  0  0  0  0  0  0  0
    0.7358  -10.2486    0.0000 C   0  0  0  0  0  0  0  0  0  0  0  0
   -0.1459  -11.4621    0.0000 S   0  0  0  0  0  0  0  0  0  0  0  0
   -1.5725  -10.9986    0.0000 C   0  0  0  0  0  0  0  0  0  0  0  0
   -2.7860  -11.8803    0.0000 C   0  0  0  0  0  0  0  0  0  0  0  0
   -3.8650  -10.8383    0.0000 C   0  0  0  0  0  0  0  0  0  0  0  0
   -5.3069  -11.2517    0.0000 N   0  0  0  0  0  0  0  0  0  0  0  0
   -3.6248  -13.1238    0.0000 C   0  0  0  0  0  0  0  0  0  0  0  0
   -2.1284  -13.2284    0.0000 C   0  0  0  0  0  0  0  0  0  0  0  0
   -1.5725   -9.4986    0.0000 N   0  0  0  0  0  0  0  0  0  0  0  0
   -0.5640   -6.3949    0.0000 S   0  0  0  0  0  0  0  0  0  0  0  0
  1  2  1  0
  2  3  1  0
  3  4  1  0
  4  5  1  0
  5  6  1  6
  6  7  1  0
  6  8  2  0
  5  9  1  0
  9 10  1  0
 10 11  1  1
 11 12  1  0
 12 13  2  0
 12 14  1  0
 14 15  2  0
 15 16  1  0
 16 17  1  0
 16 18  2  0
 18 19  1  0
 19 20  2  0
 20 21  1  0
 21 22  1  0
 22 23  1  0
 23 24  1  0
 24 25  1  0
 23 26  1  0
 26 27  1  0
 22 28  2  0
 18 29  1  0
 10  3  1  0
 29 14  1  0
 28 19  1  0
 27 23  1  0
M  END

