
     RDKit          2D

 35 40  0  0  0  0  0  0  0  0999 V2000
   -0.0344    9.8970    0.0000 C   0  0  0  0  0  0  0  0  0  0  0  0
   -1.0381    8.7823    0.0000 N   0  0  0  0  0  0  0  0  0  0  0  0
   -2.5053    9.0942    0.0000 C   0  0  0  0  0  0  0  0  0  0  0  0
   -0.5745    7.3557    0.0000 C   0  0  0  0  0  0  0  0  0  0  0  0
   -1.5782    6.2410    0.0000 C   0  0  0  0  0  0  0  0  0  0  0  0
   -3.0455    6.5529    0.0000 O   0  0  0  0  0  0  0  0  0  0  0  0
   -1.1147    4.8144    0.0000 N   0  0  0  0  0  0  0  0  0  0  0  0
    0.3119    4.3509    0.0000 C   0  0  0  0  0  0  0  0  0  0  0  0
    0.3119    2.8509    0.0000 C   0  0  0  0  0  0  0  0  0  0  0  0
    0.0000    1.3837    0.0000 C   0  0  0  0  0  0  0  0  0  0  0  0
   -1.1147    2.3874    0.0000 C   0  0  0  0  0  0  0  0  0  0  0  0
   -2.2294    1.3837    0.0000 C   0  0  0  0  0  0  0  0  0  0  0  0
   -2.0726   -0.1081    0.0000 N   0  0  0  0  0  0  0  0  0  0  0  0
   -3.4430   -0.7182    0.0000 C   0  0  0  0  0  0  0  0  0  0  0  0
   -3.7548   -2.1855    0.0000 C   0  0  0  0  0  0  0  0  0  0  0  0
   -5.1814   -2.6490    0.0000 N   0  0  0  0  0  0  0  0  0  0  0  0
   -5.4933   -4.1162    0.0000 C   0  0  0  0  0  0  0  0  0  0  0  0
   -6.9199   -4.5797    0.0000 N   0  0  0  0  0  0  0  0  0  0  0  0
   -4.3786   -5.1199    0.0000 C   0  0  0  0  0  0  0  0  0  0  0  0
   -2.9520   -4.6564    0.0000 N   0  0  0  0  0  0  0  0  0  0  0  0
   -2.6401   -3.1891    0.0000 C   0  0  0  0  0  0  0  0  0  0  0  0
   -1.2135   -2.7256    0.0000 N   0  0  0  0  0  0  0  0  0  0  0  0
   -0.7500   -1.2990    0.0000 N   0  0  0  0  0  0  0  0  0  0  0  0
    0.7500   -1.2990    0.0000 N   0  0  0  0  0  0  0  0  0  0  0  0
    1.2135   -2.7256    0.0000 C   0  0  0  0  0  0  0  0  0  0  0  0
    2.5838   -3.3357    0.0000 C   0  0  0  0  0  0  0  0  0  0  0  0
    2.7406   -4.8275    0.0000 C   0  0  0  0  0  0  0  0  0  0  0  0
    1.5271   -5.7092    0.0000 C   0  0  0  0  0  0  0  0  0  0  0  0
    0.1568   -5.0991    0.0000 C   0  0  0  0  0  0  0  0  0  0  0  0
    0.0000   -3.6073    0.0000 C   0  0  0  0  0  0  0  0  0  0  0  0
   -4.4467    0.3965    0.0000 N   0  0  0  0  0  0  0  0  0  0  0  0
   -3.6967    1.6955    0.0000 N   0  0  0  0  0  0  0  0  0  0  0  0
   -4.3068    3.0658    0.0000 C   0  0  0  0  0  0  0  0  0  0  0  0
   -5.7985    3.2226    0.0000 N   0  0  0  0  0  0  0  0  0  0  0  0
   -1.9964    3.6009    0.0000 C   0  0  0  0  0  0  0  0  0  0  0  0
  1  2  1  0
  2  3  1  0
  2  4  1  0
  4  5  1  0
  5  6  2  0
  5  7  1  0
  7  8  1  0
  9  8  1  1
  9 10  1  0
 10 11  1  0
 11 12  1  6
 12 13  2  0
 13 14  1  0
 14 15  1  0
 15 16  2  0
 16 17  1  0
 17 18  1  0
 17 19  2  0
 19 20  1  0
 20 21  2  0
 21 22  1  0
 22 23  1  0
 23 24  2  0
 24 25  1  0
 25 26  2  0
 26 27  1  0
 27 28  2  0
 28 29  1  0
 29 30  2  0
 14 31  2  0
 31 32  1  0
 32 33  1  0
 33 34  1  0
 11 35  1  0
 35  7  1  0
 11  9  1  0
 32 12  1  0
 21 15  1  0
 30 22  1  0
 30 25  1  0
M  END

