
     RDKit          2D

 25 28  0  0  0  0  0  0  0  0999 V2000
   -7.8791    8.1092    0.0000 C   0  0  0  0  0  0  0  0  0  0  0  0
   -7.2690    6.7389    0.0000 S   0  0  0  0  0  0  0  0  0  0  0  0
   -5.8986    7.3490    0.0000 O   0  0  0  0  0  0  0  0  0  0  0  0
   -8.6393    6.1288    0.0000 O   0  0  0  0  0  0  0  0  0  0  0  0
   -6.6589    5.3686    0.0000 C   0  0  0  0  0  0  0  0  0  0  0  0
   -5.1671    5.2118    0.0000 C   0  0  0  0  0  0  0  0  0  0  0  0
   -4.4171    3.9127    0.0000 N   0  0  0  0  0  0  0  0  0  0  0  0
   -2.9499    4.2246    0.0000 N   0  0  0  0  0  0  0  0  0  0  0  0
   -1.8351    3.2209    0.0000 C   0  0  0  0  0  0  0  0  0  0  0  0
   -0.4086    3.6844    0.0000 C   0  0  0  0  0  0  0  0  0  0  0  0
    0.7062    2.6807    0.0000 C   0  0  0  0  0  0  0  0  0  0  0  0
    0.3943    1.2135    0.0000 C   0  0  0  0  0  0  0  0  0  0  0  0
    1.2760    0.0000    0.0000 C   0  0  0  0  0  0  0  0  0  0  0  0
    0.3943   -1.2135    0.0000 C   0  0  0  0  0  0  0  0  0  0  0  0
   -1.0323   -0.7500    0.0000 N   0  0  0  0  0  0  0  0  0  0  0  0
   -1.0323    0.7500    0.0000 C   0  0  0  0  0  0  0  0  0  0  0  0
   -2.1470    1.7537    0.0000 C   0  0  0  0  0  0  0  0  0  0  0  0
   -2.7931    5.7164    0.0000 C   0  0  0  0  0  0  0  0  0  0  0  0
   -1.4940    6.4664    0.0000 N   0  0  0  0  0  0  0  0  0  0  0  0
   -0.1950    5.7164    0.0000 C   0  0  0  0  0  0  0  0  0  0  0  0
    1.1041    6.4664    0.0000 C   0  0  0  0  0  0  0  0  0  0  0  0
    1.1041    7.9664    0.0000 O   0  0  0  0  0  0  0  0  0  0  0  0
   -0.1950    8.7164    0.0000 C   0  0  0  0  0  0  0  0  0  0  0  0
   -1.4940    7.9664    0.0000 C   0  0  0  0  0  0  0  0  0  0  0  0
   -4.1634    6.3265    0.0000 N   0  0  0  0  0  0  0  0  0  0  0  0
  1  2  1  0
  2  3  2  0
  2  4  2  0
  2  5  1  0
  5  6  1  0
  6  7  2  0
  7  8  1  0
  8  9  1  0
  9 10  2  0
 10 11  1  0
 11 12  2  0
 12 13  1  0
 13 14  2  0
 14 15  1  0
 15 16  1  0
 16 17  2  0
  8 18  1  0
 18 19  1  0
 19 20  1  0
 20 21  1  0
 21 22  1  0
 22 23  1  0
 23 24  1  0
 18 25  2  0
 25  6  1  0
 17  9  1  0
 24 19  1  0
 16 12  1  0
M  END

