
     RDKit          2D

 28 31  0  0  0  0  0  0  0  0999 V2000
    7.6230    9.4250    0.0000 N   0  0  0  0  0  0  0  0  0  0  0  0
    6.7413    8.2114    0.0000 C   0  0  0  0  0  0  0  0  0  0  0  0
    7.3514    6.8411    0.0000 C   0  0  0  0  0  0  0  0  0  0  0  0
    8.8432    6.6843    0.0000 C   0  0  0  0  0  0  0  0  0  0  0  0
    9.7249    7.8978    0.0000 C   0  0  0  0  0  0  0  0  0  0  0  0
   11.2167    7.7411    0.0000 C   0  0  0  0  0  0  0  0  0  0  0  0
   12.0983    8.9546    0.0000 C   0  0  0  0  0  0  0  0  0  0  0  0
   11.4882   10.3249    0.0000 C   0  0  0  0  0  0  0  0  0  0  0  0
    9.9964   10.4817    0.0000 C   0  0  0  0  0  0  0  0  0  0  0  0
    9.1148    9.2682    0.0000 C   0  0  0  0  0  0  0  0  0  0  0  0
    6.4697    5.6276    0.0000 N   0  0  0  0  0  0  0  0  0  0  0  0
    4.9780    5.7844    0.0000 C   0  0  0  0  0  0  0  0  0  0  0  0
    4.3678    7.1547    0.0000 O   0  0  0  0  0  0  0  0  0  0  0  0
    4.0963    4.5709    0.0000 C   0  0  0  0  0  0  0  0  0  0  0  0
    4.5598    3.1443    0.0000 C   0  0  0  0  0  0  0  0  0  0  0  0
    3.3463    2.2626    0.0000 C   0  0  0  0  0  0  0  0  0  0  0  0
    3.3463    0.7626    0.0000 Br  0  0  0  0  0  0  0  0  0  0  0  0
    2.1328    3.1443    0.0000 C   0  0  0  0  0  0  0  0  0  0  0  0
    0.7062    2.6807    0.0000 C   0  0  0  0  0  0  0  0  0  0  0  0
   -0.4086    3.6844    0.0000 C   0  0  0  0  0  0  0  0  0  0  0  0
   -1.8351    3.2209    0.0000 C   0  0  0  0  0  0  0  0  0  0  0  0
   -2.1470    1.7537    0.0000 N   0  0  0  0  0  0  0  0  0  0  0  0
   -1.0323    0.7500    0.0000 C   0  0  0  0  0  0  0  0  0  0  0  0
    0.3943    1.2135    0.0000 C   0  0  0  0  0  0  0  0  0  0  0  0
    1.2760    0.0000    0.0000 C   0  0  0  0  0  0  0  0  0  0  0  0
    0.3943   -1.2135    0.0000 C   0  0  0  0  0  0  0  0  0  0  0  0
   -1.0323   -0.7500    0.0000 N   0  0  0  0  0  0  0  0  0  0  0  0
    2.5963    4.5709    0.0000 S   0  0  0  0  0  0  0  0  0  0  0  0
  1  2  1  0
  3  2  1  1
  3  4  1  0
  4  5  1  0
  5  6  2  0
  6  7  1  0
  7  8  2  0
  8  9  1  0
  9 10  2  0
  3 11  1  0
 11 12  1  0
 12 13  2  0
 12 14  1  0
 14 15  2  0
 15 16  1  0
 16 17  1  0
 16 18  2  0
 18 19  1  0
 19 20  2  0
 20 21  1  0
 21 22  2  0
 22 23  1  0
 23 24  2  0
 24 25  1  0
 25 26  2  0
 26 27  1  0
 18 28  1  0
 10  5  1  0
 28 14  1  0
 24 19  1  0
 27 23  1  0
M  END

