
     RDKit          2D

 27 29  0  0  0  0  0  0  0  0999 V2000
    3.5260   -3.8971    0.0000 C   0  0  0  0  0  0  0  0  0  0  0  0
    2.7760   -2.5981    0.0000 C   0  0  0  0  0  0  0  0  0  0  0  0
    3.5260   -1.2990    0.0000 N   0  0  0  0  0  0  0  0  0  0  0  0
    5.0260   -1.2990    0.0000 C   0  0  0  0  0  0  0  0  0  0  0  0
    2.7760    0.0000    0.0000 C   0  0  0  0  0  0  0  0  0  0  0  0
    1.2760    0.0000    0.0000 C   0  0  0  0  0  0  0  0  0  0  0  0
    0.3943    1.2135    0.0000 N   0  0  0  0  0  0  0  0  0  0  0  0
   -1.0323    0.7500    0.0000 C   0  0  0  0  0  0  0  0  0  0  0  0
   -2.2458    1.6317    0.0000 C   0  0  0  0  0  0  0  0  0  0  0  0
   -3.6724    1.1682    0.0000 C   0  0  0  0  0  0  0  0  0  0  0  0
   -4.1359   -0.2584    0.0000 C   0  0  0  0  0  0  0  0  0  0  0  0
   -4.5541    2.3817    0.0000 S   0  0  0  0  0  0  0  0  0  0  0  0
   -3.6724    3.5952    0.0000 C   0  0  0  0  0  0  0  0  0  0  0  0
   -4.1359    5.0218    0.0000 C   0  0  0  0  0  0  0  0  0  0  0  0
   -5.6031    5.3337    0.0000 O   0  0  0  0  0  0  0  0  0  0  0  0
   -3.1322    6.1365    0.0000 N   0  0  0  0  0  0  0  0  0  0  0  0
   -3.5958    7.5631    0.0000 C   0  0  0  0  0  0  0  0  0  0  0  0
   -5.0223    8.0266    0.0000 C   0  0  0  0  0  0  0  0  0  0  0  0
   -5.0223    9.5266    0.0000 C   0  0  0  0  0  0  0  0  0  0  0  0
   -3.5958    9.9901    0.0000 C   0  0  0  0  0  0  0  0  0  0  0  0
   -2.7141    8.7766    0.0000 N   0  0  0  0  0  0  0  0  0  0  0  0
   -1.2141    8.7766    0.0000 C   0  0  0  0  0  0  0  0  0  0  0  0
   -0.4641   10.0757    0.0000 N   0  0  0  0  0  0  0  0  0  0  0  0
   -0.4641    7.4776    0.0000 O   0  0  0  0  0  0  0  0  0  0  0  0
   -2.2458    3.1317    0.0000 N   0  0  0  0  0  0  0  0  0  0  0  0
   -1.0323   -0.7500    0.0000 C   0  0  0  0  0  0  0  0  0  0  0  0
    0.3943   -1.2135    0.0000 S   0  0  0  0  0  0  0  0  0  0  0  0
  1  2  1  0
  2  3  1  0
  3  4  1  0
  3  5  1  0
  5  6  1  0
  6  7  2  0
  7  8  1  0
  8  9  1  0
  9 10  2  0
 10 11  1  0
 10 12  1  0
 12 13  1  0
 13 14  1  0
 14 15  2  0
 14 16  1  0
 17 16  1  1
 17 18  1  0
 18 19  1  0
 19 20  1  0
 20 21  1  0
 21 22  1  0
 22 23  1  0
 22 24  2  0
 13 25  2  0
  8 26  2  0
 26 27  1  0
 27  6  1  0
 25  9  1  0
 21 17  1  0
M  END

