
     RDKit          2D

 38 42  0  0  0  0  0  0  0  0999 V2000
    3.0000    0.0000    0.0000 C   0  0  0  0  0  0  0  0  0  0  0  0
    1.5000    0.0000    0.0000 C   0  0  0  0  0  0  0  0  0  0  0  0
    0.7500   -1.2990    0.0000 C   0  0  0  0  0  0  0  0  0  0  0  0
   -0.7500   -1.2990    0.0000 C   0  0  0  0  0  0  0  0  0  0  0  0
   -1.5000    0.0000    0.0000 C   0  0  0  0  0  0  0  0  0  0  0  0
   -3.0000    0.0000    0.0000 C   0  0  0  0  0  0  0  0  0  0  0  0
   -3.7500    1.2990    0.0000 C   0  0  0  0  0  0  0  0  0  0  0  0
   -3.0000    2.5981    0.0000 N   0  0  0  0  0  0  0  0  0  0  0  0
   -5.2500    1.2990    0.0000 N   0  0  0  0  0  0  0  0  0  0  0  0
   -6.0000    0.0000    0.0000 C   0  0  0  0  0  0  0  0  0  0  0  0
   -5.2500   -1.2990    0.0000 N   0  0  0  0  0  0  0  0  0  0  0  0
   -3.7500   -1.2990    0.0000 C   0  0  0  0  0  0  0  0  0  0  0  0
   -3.0000   -2.5981    0.0000 N   0  0  0  0  0  0  0  0  0  0  0  0
   -3.7500   -3.8971    0.0000 C   0  0  0  0  0  0  0  0  0  0  0  0
   -3.0000   -5.1962    0.0000 C   0  0  0  0  0  0  0  0  0  0  0  0
   -1.5000   -5.1962    0.0000 C   0  0  0  0  0  0  0  0  0  0  0  0
   -0.7500   -6.4952    0.0000 C   0  0  0  0  0  0  0  0  0  0  0  0
    0.7418   -6.6520    0.0000 C   0  0  0  0  0  0  0  0  0  0  0  0
    1.0537   -8.1192    0.0000 C   0  0  0  0  0  0  0  0  0  0  0  0
    2.4240   -8.7293    0.0000 C   0  0  0  0  0  0  0  0  0  0  0  0
    2.5808  -10.2211    0.0000 C   0  0  0  0  0  0  0  0  0  0  0  0
    3.9511  -10.8312    0.0000 C   0  0  0  0  0  0  0  0  0  0  0  0
    4.1079  -12.3230    0.0000 F   0  0  0  0  0  0  0  0  0  0  0  0
    5.1646   -9.9495    0.0000 C   0  0  0  0  0  0  0  0  0  0  0  0
    5.0078   -8.4577    0.0000 C   0  0  0  0  0  0  0  0  0  0  0  0
    3.6375   -7.8476    0.0000 C   0  0  0  0  0  0  0  0  0  0  0  0
    3.4807   -6.3558    0.0000 C   0  0  0  0  0  0  0  0  0  0  0  0
    3.3239   -4.8641    0.0000 F   0  0  0  0  0  0  0  0  0  0  0  0
    4.9725   -6.1991    0.0000 F   0  0  0  0  0  0  0  0  0  0  0  0
    1.9889   -6.5126    0.0000 F   0  0  0  0  0  0  0  0  0  0  0  0
   -0.2454   -8.8692    0.0000 N   0  0  0  0  0  0  0  0  0  0  0  0
   -1.3601   -7.8655    0.0000 N   0  0  0  0  0  0  0  0  0  0  0  0
   -2.8273   -8.1774    0.0000 C   0  0  0  0  0  0  0  0  0  0  0  0
   -3.2909   -9.6040    0.0000 N   0  0  0  0  0  0  0  0  0  0  0  0
   -0.7500   -3.8971    0.0000 C   0  0  0  0  0  0  0  0  0  0  0  0
   -1.5000   -2.5981    0.0000 C   0  0  0  0  0  0  0  0  0  0  0  0
   -0.7500    1.2990    0.0000 C   0  0  0  0  0  0  0  0  0  0  0  0
    0.7500    1.2990    0.0000 C   0  0  0  0  0  0  0  0  0  0  0  0
  1  2  1  0
  2  3  2  0
  3  4  1  0
  4  5  2  0
  5  6  1  0
  6  7  2  0
  7  8  1  0
  7  9  1  0
  9 10  2  0
 10 11  1  0
 11 12  2  0
 12 13  1  0
 13 14  1  0
 14 15  1  0
 15 16  1  0
 16 17  1  0
 17 18  2  0
 18 19  1  0
 19 20  1  0
 20 21  2  0
 21 22  1  0
 22 23  1  0
 22 24  2  0
 24 25  1  0
 25 26  2  0
 26 27  1  0
 27 28  1  0
 27 29  1  0
 27 30  1  0
 19 31  2  0
 31 32  1  0
 32 33  1  0
 33 34  1  0
 16 35  1  0
 35 36  1  0
  5 37  1  0
 37 38  2  0
 38  2  1  0
 12  6  1  0
 36 13  1  0
 32 17  1  0
 26 20  1  0
M  END

