
     RDKit          2D

 30 35  0  0  0  0  0  0  0  0999 V2000
   -0.0173   -6.6275    0.0000 N   0  0  0  0  0  0  0  0  0  0  0  0
    1.4499   -6.9394    0.0000 C   0  0  0  0  0  0  0  0  0  0  0  0
    2.4536   -5.8246    0.0000 C   0  0  0  0  0  0  0  0  0  0  0  0
    1.9901   -4.3981    0.0000 O   0  0  0  0  0  0  0  0  0  0  0  0
    3.9208   -6.1365    0.0000 C   0  0  0  0  0  0  0  0  0  0  0  0
    4.9245   -5.0218    0.0000 C   0  0  0  0  0  0  0  0  0  0  0  0
    4.4610   -3.5952    0.0000 C   0  0  0  0  0  0  0  0  0  0  0  0
    3.0344   -3.1317    0.0000 N   0  0  0  0  0  0  0  0  0  0  0  0
    3.0344   -1.6317    0.0000 N   0  0  0  0  0  0  0  0  0  0  0  0
    1.8209   -0.7500    0.0000 N   0  0  0  0  0  0  0  0  0  0  0  0
    1.8209    0.7500    0.0000 C   0  0  0  0  0  0  0  0  0  0  0  0
    0.3943    1.2135    0.0000 C   0  0  0  0  0  0  0  0  0  0  0  0
    1.2760    0.0000    0.0000 C   0  0  0  0  0  0  0  0  0  0  0  0
    0.3943   -1.2135    0.0000 C   0  0  0  0  0  0  0  0  0  0  0  0
   -1.0323   -0.7500    0.0000 C   0  0  0  0  0  0  0  0  0  0  0  0
   -1.0323    0.7500    0.0000 O   0  0  0  0  0  0  0  0  0  0  0  0
    4.4610   -1.1682    0.0000 C   0  0  0  0  0  0  0  0  0  0  0  0
    4.9245    0.2584    0.0000 N   0  0  0  0  0  0  0  0  0  0  0  0
    4.0428    1.4720    0.0000 C   0  0  0  0  0  0  0  0  0  0  0  0
    4.9245    2.6855    0.0000 C   0  0  0  0  0  0  0  0  0  0  0  0
    4.9245    1.1855    0.0000 C   0  0  0  0  0  0  0  0  0  0  0  0
    6.3511    0.7220    0.0000 C   0  0  0  0  0  0  0  0  0  0  0  0
    7.2328    1.9355    0.0000 C   0  0  0  0  0  0  0  0  0  0  0  0
    6.3511    3.1490    0.0000 O   0  0  0  0  0  0  0  0  0  0  0  0
    5.3427   -2.3817    0.0000 C   0  0  0  0  0  0  0  0  0  0  0  0
    6.3917   -5.3337    0.0000 C   0  0  0  0  0  0  0  0  0  0  0  0
    6.8553   -6.7602    0.0000 N   0  0  0  0  0  0  0  0  0  0  0  0
    5.8516   -7.8750    0.0000 C   0  0  0  0  0  0  0  0  0  0  0  0
    6.3151   -9.3015    0.0000 N   0  0  0  0  0  0  0  0  0  0  0  0
    4.3843   -7.5631    0.0000 C   0  0  0  0  0  0  0  0  0  0  0  0
  1  2  1  0
  2  3  1  0
  3  4  1  6
  3  5  1  0
  5  6  2  0
  6  7  1  0
  7  8  2  0
  8  9  1  0
  9 10  1  0
 10 11  1  0
 12 11  1  1
 12 13  1  0
 13 14  1  0
 14 15  1  1
 15 16  1  0
  9 17  1  0
 17 18  1  0
 18 19  1  0
 20 19  1  6
 20 21  1  0
 21 22  1  0
 22 23  1  6
 23 24  1  0
 17 25  2  0
  6 26  1  0
 26 27  2  0
 27 28  1  0
 28 29  1  0
 28 30  2  0
 30  5  1  0
 25  7  1  0
 14 10  1  0
 22 18  1  0
 16 12  1  0
 24 20  1  0
M  END

