
     RDKit          2D

 33 36  0  0  0  0  0  0  0  0999 V2000
    3.7500   -1.2990    0.0000 C   0  0  0  0  0  0  0  0  0  0  0  0
    3.0000    0.0000    0.0000 N   0  0  0  0  0  0  0  0  0  0  0  0
    1.5000    0.0000    0.0000 C   0  0  0  0  0  0  0  0  0  0  0  0
    0.7500   -1.2990    0.0000 C   0  0  0  0  0  0  0  0  0  0  0  0
   -0.7500   -1.2990    0.0000 C   0  0  0  0  0  0  0  0  0  0  0  0
   -1.5000    0.0000    0.0000 C   0  0  0  0  0  0  0  0  0  0  0  0
   -3.0000    0.0000    0.0000 C   0  0  0  0  0  0  0  0  0  0  0  0
   -3.7500    1.2990    0.0000 C   0  0  0  0  0  0  0  0  0  0  0  0
   -5.2500    1.2990    0.0000 C   0  0  0  0  0  0  0  0  0  0  0  0
   -6.0000    0.0000    0.0000 C   0  0  0  0  0  0  0  0  0  0  0  0
   -7.5000    0.0000    0.0000 C   0  0  0  0  0  0  0  0  0  0  0  0
   -8.3817   -1.2135    0.0000 C   0  0  0  0  0  0  0  0  0  0  0  0
   -9.8083   -0.7500    0.0000 C   0  0  0  0  0  0  0  0  0  0  0  0
  -11.0218   -1.6317    0.0000 C   0  0  0  0  0  0  0  0  0  0  0  0
  -12.2353   -2.5134    0.0000 F   0  0  0  0  0  0  0  0  0  0  0  0
  -11.9035   -0.4182    0.0000 F   0  0  0  0  0  0  0  0  0  0  0  0
  -10.1401   -2.8452    0.0000 F   0  0  0  0  0  0  0  0  0  0  0  0
   -9.8083    0.7500    0.0000 N   0  0  0  0  0  0  0  0  0  0  0  0
   -8.3817    1.2135    0.0000 N   0  0  0  0  0  0  0  0  0  0  0  0
   -7.9182    2.6401    0.0000 C   0  0  0  0  0  0  0  0  0  0  0  0
   -6.4509    2.9520    0.0000 C   0  0  0  0  0  0  0  0  0  0  0  0
   -5.9874    4.3786    0.0000 C   0  0  0  0  0  0  0  0  0  0  0  0
   -6.9911    5.4933    0.0000 C   0  0  0  0  0  0  0  0  0  0  0  0
   -6.5276    6.9199    0.0000 S   0  0  0  0  0  0  0  0  0  0  0  0
   -6.0641    8.3464    0.0000 N   0  0  0  0  0  0  0  0  0  0  0  0
   -5.1010    6.4563    0.0000 O   0  0  0  0  0  0  0  0  0  0  0  0
   -7.9542    7.3834    0.0000 O   0  0  0  0  0  0  0  0  0  0  0  0
   -8.4583    5.1814    0.0000 C   0  0  0  0  0  0  0  0  0  0  0  0
   -8.9218    3.7548    0.0000 C   0  0  0  0  0  0  0  0  0  0  0  0
   -5.2500   -1.2990    0.0000 C   0  0  0  0  0  0  0  0  0  0  0  0
   -3.7500   -1.2990    0.0000 C   0  0  0  0  0  0  0  0  0  0  0  0
   -0.7500    1.2990    0.0000 C   0  0  0  0  0  0  0  0  0  0  0  0
    0.7500    1.2990    0.0000 N   0  0  0  0  0  0  0  0  0  0  0  0
  1  2  1  0
  2  3  1  0
  3  4  2  0
  4  5  1  0
  5  6  2  0
  6  7  1  0
  7  8  2  0
  8  9  1  0
  9 10  2  0
 10 11  1  0
 11 12  2  0
 12 13  1  0
 13 14  1  0
 14 15  1  0
 14 16  1  0
 14 17  1  0
 13 18  2  0
 18 19  1  0
 19 20  1  0
 20 21  2  0
 21 22  1  0
 22 23  2  0
 23 24  1  0
 24 25  1  0
 24 26  2  0
 24 27  2  0
 23 28  1  0
 28 29  2  0
 10 30  1  0
 30 31  2  0
  6 32  1  0
 32 33  2  0
 33  3  1  0
 31  7  1  0
 19 11  1  0
 29 20  1  0
M  END

