
     RDKit          2D

 36 39  0  0  0  0  0  0  0  0999 V2000
    3.7500   -1.2990    0.0000 C   0  0  0  0  0  0  0  0  0  0  0  0
    3.0000    0.0000    0.0000 N   0  0  0  0  0  0  0  0  0  0  0  0
    1.5000    0.0000    0.0000 C   0  0  0  0  0  0  0  0  0  0  0  0
    0.7500   -1.2990    0.0000 C   0  0  0  0  0  0  0  0  0  0  0  0
    1.5000   -2.5981    0.0000 O   0  0  0  0  0  0  0  0  0  0  0  0
   -0.7500   -1.2990    0.0000 N   0  0  0  0  0  0  0  0  0  0  0  0
   -1.5000    0.0000    0.0000 C   0  0  0  0  0  0  0  0  0  0  0  0
   -0.7500    1.2990    0.0000 C   0  0  0  0  0  0  0  0  0  0  0  0
    0.7500    1.2990    0.0000 C   0  0  0  0  0  0  0  0  0  0  0  0
    1.5000    2.5981    0.0000 N   0  0  0  0  0  0  0  0  0  0  0  0
    3.0000    2.5981    0.0000 C   0  0  0  0  0  0  0  0  0  0  0  0
    3.7500    3.8971    0.0000 C   0  0  0  0  0  0  0  0  0  0  0  0
    5.2500    3.8971    0.0000 C   0  0  0  0  0  0  0  0  0  0  0  0
    6.1317    5.1106    0.0000 C   0  0  0  0  0  0  0  0  0  0  0  0
    7.5583    4.6471    0.0000 C   0  0  0  0  0  0  0  0  0  0  0  0
    8.7718    5.5288    0.0000 C   0  0  0  0  0  0  0  0  0  0  0  0
    9.9853    6.4105    0.0000 F   0  0  0  0  0  0  0  0  0  0  0  0
    9.6535    4.3153    0.0000 F   0  0  0  0  0  0  0  0  0  0  0  0
    7.8901    6.7423    0.0000 F   0  0  0  0  0  0  0  0  0  0  0  0
    7.5583    3.1471    0.0000 N   0  0  0  0  0  0  0  0  0  0  0  0
    6.1317    2.6836    0.0000 N   0  0  0  0  0  0  0  0  0  0  0  0
    5.6682    1.2570    0.0000 C   0  0  0  0  0  0  0  0  0  0  0  0
    4.2009    0.9451    0.0000 C   0  0  0  0  0  0  0  0  0  0  0  0
    3.7374   -0.4814    0.0000 C   0  0  0  0  0  0  0  0  0  0  0  0
    4.7411   -1.5962    0.0000 C   0  0  0  0  0  0  0  0  0  0  0  0
    4.2776   -3.0228    0.0000 S   0  0  0  0  0  0  0  0  0  0  0  0
    3.8141   -4.4493    0.0000 N   0  0  0  0  0  0  0  0  0  0  0  0
    5.7042   -3.4863    0.0000 O   0  0  0  0  0  0  0  0  0  0  0  0
    2.8510   -2.5592    0.0000 O   0  0  0  0  0  0  0  0  0  0  0  0
    6.2083   -1.2843    0.0000 C   0  0  0  0  0  0  0  0  0  0  0  0
    6.6718    0.1423    0.0000 C   0  0  0  0  0  0  0  0  0  0  0  0
    3.0000    5.1962    0.0000 C   0  0  0  0  0  0  0  0  0  0  0  0
    3.7500    6.4952    0.0000 O   0  0  0  0  0  0  0  0  0  0  0  0
    1.5000    5.1962    0.0000 N   0  0  0  0  0  0  0  0  0  0  0  0
    0.7500    3.8971    0.0000 C   0  0  0  0  0  0  0  0  0  0  0  0
   -0.7500    3.8971    0.0000 O   0  0  0  0  0  0  0  0  0  0  0  0
  1  2  1  0
  2  3  1  0
  3  4  2  0
  4  5  1  0
  4  6  1  0
  6  7  2  0
  7  8  1  0
  8  9  2  0
  9 10  1  0
 10 11  1  0
 11 12  2  0
 12 13  1  0
 13 14  2  0
 14 15  1  0
 15 16  1  0
 16 17  1  0
 16 18  1  0
 16 19  1  0
 15 20  2  0
 20 21  1  0
 21 22  1  0
 22 23  2  0
 23 24  1  0
 24 25  2  0
 25 26  1  0
 26 27  1  0
 26 28  2  0
 26 29  2  0
 25 30  1  0
 30 31  2  0
 12 32  1  0
 32 33  2  0
 32 34  1  0
 34 35  1  0
 35 36  2  0
  9  3  1  0
 35 10  1  0
 21 13  1  0
 31 22  1  0
M  END

