
     RDKit          2D

 37 41  0  0  0  0  0  0  0  0999 V2000
   -7.5417  -24.4581    0.0000 C   0  0  0  0  0  0  0  0  0  0  0  0
   -6.0745  -24.1462    0.0000 N   0  0  0  0  0  4  0  0  0  0  0  0
   -5.0708  -25.2609    0.0000 C   0  0  0  0  0  0  0  0  0  0  0  0
   -5.6110  -22.7196    0.0000 C   0  0  0  0  0  0  0  0  0  0  0  0
   -6.6147  -21.6049    0.0000 C   0  0  0  0  0  0  0  0  0  0  0  0
   -6.1512  -20.1783    0.0000 C   0  0  0  0  0  0  0  0  0  0  0  0
   -4.6839  -19.8664    0.0000 C   0  0  0  0  0  0  0  0  0  0  0  0
   -4.2204  -18.4398    0.0000 C   0  0  0  0  0  0  0  0  0  0  0  0
   -5.2241  -17.3251    0.0000 C   0  0  0  0  0  0  0  0  0  0  0  0
   -6.7159  -17.4819    0.0000 C   0  0  0  0  0  0  0  0  0  0  0  0
   -7.3260  -16.1116    0.0000 N   0  0  0  0  0  0  0  0  0  0  0  0
   -6.2113  -15.1079    0.0000 C   0  0  0  0  0  0  0  0  0  0  0  0
   -6.3681  -13.6161    0.0000 N   0  0  0  0  0  0  0  0  0  0  0  0
   -5.1546  -12.7344    0.0000 C   0  0  0  0  0  0  0  0  0  0  0  0
   -3.7842  -13.3446    0.0000 O   0  0  0  0  0  0  0  0  0  0  0  0
   -5.3113  -11.2427    0.0000 C   0  0  0  0  0  0  0  0  0  0  0  0
   -4.0978  -10.3610    0.0000 S   0  0  0  0  0  0  0  0  0  0  0  0
   -4.2546   -8.8692    0.0000 C   0  0  0  0  0  0  0  0  0  0  0  0
   -5.5537   -8.1192    0.0000 N   0  0  0  0  0  0  0  0  0  0  0  0
   -5.2418   -6.6520    0.0000 N   0  0  0  0  0  0  0  0  0  0  0  0
   -3.7500   -6.4952    0.0000 C   0  0  0  0  0  0  0  0  0  0  0  0
   -3.0000   -5.1962    0.0000 O   0  0  0  0  0  0  0  0  0  0  0  0
   -1.5000   -5.1962    0.0000 C   0  0  0  0  0  0  0  0  0  0  0  0
   -0.7500   -3.8971    0.0000 C   0  0  0  0  0  0  0  0  0  0  0  0
    0.7500   -3.8971    0.0000 C   0  0  0  0  0  0  0  0  0  0  0  0
    1.5000   -2.5981    0.0000 C   0  0  0  0  0  0  0  0  0  0  0  0
    0.7500   -1.2990    0.0000 C   0  0  0  0  0  0  0  0  0  0  0  0
    1.5000    0.0000    0.0000 C   0  0  0  0  0  0  0  0  0  0  0  0
    0.7500    1.2990    0.0000 C   0  0  0  0  0  0  0  0  0  0  0  0
   -0.7500    1.2990    0.0000 C   0  0  0  0  0  0  0  0  0  0  0  0
   -1.5000    0.0000    0.0000 C   0  0  0  0  0  0  0  0  0  0  0  0
   -0.7500   -1.2990    0.0000 C   0  0  0  0  0  0  0  0  0  0  0  0
   -1.5000   -2.5981    0.0000 C   0  0  0  0  0  0  0  0  0  0  0  0
   -3.1399   -7.8655    0.0000 O   0  0  0  0  0  0  0  0  0  0  0  0
   -4.9122  -15.8579    0.0000 S   0  0  0  0  0  0  0  0  0  0  0  0
   -3.6802  -20.9811    0.0000 C   0  0  0  0  0  0  0  0  0  0  0  0
   -4.1438  -22.4077    0.0000 C   0  0  0  0  0  0  0  0  0  0  0  0
  1  2  1  0
  2  3  1  0
  2  4  2  3
  4  5  1  0
  5  6  2  0
  6  7  1  0
  7  8  2  3
  8  9  1  0
  9 10  2  0
 10 11  1  0
 11 12  2  0
 12 13  1  0
 13 14  1  0
 14 15  2  0
 14 16  1  0
 16 17  1  0
 17 18  1  0
 18 19  2  0
 19 20  1  0
 20 21  2  0
 21 22  1  0
 22 23  1  0
 23 24  1  0
 24 25  2  0
 25 26  1  0
 26 27  2  0
 27 28  1  0
 28 29  1  0
 29 30  1  0
 30 31  1  0
 31 32  1  0
 32 33  2  0
 21 34  1  0
 12 35  1  0
  7 36  1  0
 36 37  2  0
 37  4  1  0
 35  9  1  0
 34 18  1  0
 33 24  1  0
 32 27  1  0
M  CHG  1   2   1
M  END

