
     RDKit          2D

 29 32  0  0  0  0  0  0  0  0999 V2000
   -1.8121   10.6385    0.0000 N   0  0  0  0  0  0  0  0  0  0  0  0
   -0.9304    9.4250    0.0000 S   0  0  0  0  0  0  0  0  0  0  0  0
    0.2831   10.3066    0.0000 O   0  0  0  0  0  0  0  0  0  0  0  0
   -2.1440    8.5433    0.0000 O   0  0  0  0  0  0  0  0  0  0  0  0
   -0.0488    8.2114    0.0000 C   0  0  0  0  0  0  0  0  0  0  0  0
    1.4430    8.3682    0.0000 C   0  0  0  0  0  0  0  0  0  0  0  0
    2.3247    7.1547    0.0000 C   0  0  0  0  0  0  0  0  0  0  0  0
    1.7146    5.7844    0.0000 C   0  0  0  0  0  0  0  0  0  0  0  0
    2.5963    4.5709    0.0000 N   0  0  0  0  0  0  0  0  0  0  0  0
    4.0963    4.5709    0.0000 N   0  0  0  0  0  0  0  0  0  0  0  0
    4.5598    3.1443    0.0000 C   0  0  0  0  0  0  0  0  0  0  0  0
    5.9864    2.6807    0.0000 O   0  0  0  0  0  0  0  0  0  0  0  0
    6.2983    1.2135    0.0000 C   0  0  0  0  0  0  0  0  0  0  0  0
    6.6101   -0.2537    0.0000 F   0  0  0  0  0  0  0  0  0  0  0  0
    7.7655    1.5254    0.0000 F   0  0  0  0  0  0  0  0  0  0  0  0
    4.8310    0.9017    0.0000 F   0  0  0  0  0  0  0  0  0  0  0  0
    3.3463    2.2626    0.0000 C   0  0  0  0  0  0  0  0  0  0  0  0
    2.1328    3.1443    0.0000 C   0  0  0  0  0  0  0  0  0  0  0  0
    0.7062    2.6807    0.0000 C   0  0  0  0  0  0  0  0  0  0  0  0
   -0.4086    3.6844    0.0000 C   0  0  0  0  0  0  0  0  0  0  0  0
   -1.8351    3.2209    0.0000 C   0  0  0  0  0  0  0  0  0  0  0  0
   -2.1470    1.7537    0.0000 C   0  0  0  0  0  0  0  0  0  0  0  0
   -1.0323    0.7500    0.0000 C   0  0  0  0  0  0  0  0  0  0  0  0
    0.3943    1.2135    0.0000 C   0  0  0  0  0  0  0  0  0  0  0  0
    1.2760    0.0000    0.0000 N   0  0  0  0  0  0  0  0  0  0  0  0
    0.3943   -1.2135    0.0000 C   0  0  0  0  0  0  0  0  0  0  0  0
   -1.0323   -0.7500    0.0000 C   0  0  0  0  0  0  0  0  0  0  0  0
    0.2228    5.6276    0.0000 C   0  0  0  0  0  0  0  0  0  0  0  0
   -0.6589    6.8411    0.0000 C   0  0  0  0  0  0  0  0  0  0  0  0
  1  2  1  0
  2  3  2  0
  2  4  2  0
  2  5  1  0
  5  6  2  0
  6  7  1  0
  7  8  2  0
  8  9  1  0
  9 10  1  0
 10 11  2  0
 11 12  1  0
 12 13  1  0
 13 14  1  0
 13 15  1  0
 13 16  1  0
 11 17  1  0
 17 18  2  0
 18 19  1  0
 19 20  2  0
 20 21  1  0
 21 22  2  0
 22 23  1  0
 23 24  2  0
 24 25  1  0
 25 26  1  0
 26 27  2  0
  8 28  1  0
 28 29  2  0
 29  5  1  0
 18  9  1  0
 24 19  1  0
 27 23  1  0
M  END

