
     RDKit          2D

 39 42  0  0  0  0  0  0  0  0999 V2000
   -9.8417    4.2890    0.0000 C   0  0  0  0  0  0  0  0  0  0  0  0
   -8.4713    3.6789    0.0000 C   0  0  0  0  0  0  0  0  0  0  0  0
   -7.2578    4.5606    0.0000 N   0  0  0  0  0  0  0  0  0  0  0  0
   -7.4146    6.0524    0.0000 C   0  0  0  0  0  0  0  0  0  0  0  0
   -8.7849    6.6625    0.0000 C   0  0  0  0  0  0  0  0  0  0  0  0
   -4.6740    4.8322    0.0000 C   0  0  0  0  0  0  0  0  0  0  0  0
   -5.8875    3.9505    0.0000 C   0  0  0  0  0  0  0  0  0  0  0  0
   -2.0046    4.9721    0.0000 C   0  0  0  0  0  0  0  0  0  0  0  0
   -0.8899    3.9684    0.0000 N   0  0  0  0  0  0  0  0  0  0  0  0
   -1.5000    2.5981    0.0000 C   0  0  0  0  0  0  0  0  0  0  0  0
   -2.9918    2.7549    0.0000 C   0  0  0  0  0  0  0  0  0  0  0  0
   -3.3037    4.2221    0.0000 N   0  0  0  0  0  0  0  0  0  0  0  0
    1.5000    0.0000    0.0000 C   0  0  0  0  0  0  0  0  0  0  0  0
    0.7500   -1.2990    0.0000 C   0  0  0  0  0  0  0  0  0  0  0  0
   -0.7500   -1.2990    0.0000 C   0  0  0  0  0  0  0  0  0  0  0  0
   -1.5000    0.0000    0.0000 C   0  0  0  0  0  0  0  0  0  0  0  0
   -0.7500    1.2990    0.0000 C   0  0  0  0  0  0  0  0  0  0  0  0
    0.7500    1.2990    0.0000 C   0  0  0  0  0  0  0  0  0  0  0  0
   -6.0000    2.5981    0.0000 C   0  0  0  0  0  0  0  0  0  0  0  0
   -5.2500    1.2990    0.0000 C   0  0  0  0  0  0  0  0  0  0  0  0
   -3.7500    1.2990    0.0000 C   0  0  0  0  0  0  0  0  0  0  0  0
   -3.0000    0.0000    0.0000 S   0  0  0  0  0  0  0  0  0  0  0  0
    3.0000    0.0000    0.0000 F   0  0  0  0  0  0  0  0  0  0  0  0
   -1.5342    9.4474    0.0000 N   0  0  0  0  0  0  0  0  0  0  0  0
   -2.9046    8.8373    0.0000 C   0  0  0  0  0  0  0  0  0  0  0  0
   -3.0613    7.3456    0.0000 C   0  0  0  0  0  0  0  0  0  0  0  0
   -1.8478    6.4639    0.0000 C   0  0  0  0  0  0  0  0  0  0  0  0
   -0.4775    7.0740    0.0000 C   0  0  0  0  0  0  0  0  0  0  0  0
   -0.3207    8.5658    0.0000 C   0  0  0  0  0  0  0  0  0  0  0  0
   -0.0784   11.6892    0.0000 N   0  0  0  0  0  0  0  0  0  0  0  0
   -0.3903   13.1564    0.0000 N   0  0  0  0  0  0  0  0  0  0  0  0
   -1.8821   13.3132    0.0000 C   0  0  0  0  0  0  0  0  0  0  0  0
   -2.4922   11.9429    0.0000 N   0  0  0  0  0  0  0  0  0  0  0  0
   -1.3774   10.9392    0.0000 C   0  0  0  0  0  0  0  0  0  0  0  0
   -1.1321   17.2104    0.0000 N   0  0  0  0  0  0  0  0  0  0  0  0
   -1.8821   15.9113    0.0000 C   0  0  0  0  0  0  0  0  0  0  0  0
   -2.6321   14.6123    0.0000 C   0  0  0  0  0  0  0  0  0  0  0  0
    2.6622   10.4690    0.0000 N   0  0  0  0  0  0  0  0  0  0  0  0
    1.2919   11.0791    0.0000 C   0  0  0  0  0  0  0  0  0  0  0  0
  1  2  1  0
  2  3  1  0
  3  4  1  0
  4  5  1  0
  6  7  1  0
  8  9  2  0
  9 10  1  0
 10 11  2  0
 11 12  1  0
 12  8  1  0
 13 14  2  0
 14 15  1  0
 15 16  2  0
 16 17  1  0
 17 18  2  0
 18 13  1  0
 19 20  1  0
 20 21  1  0
 21 22  1  0
 24 25  1  0
 25 26  1  0
 26 27  1  0
 27 28  1  0
 28 29  1  0
 29 24  1  0
 30 31  1  0
 31 32  2  0
 32 33  1  0
 33 34  2  0
 34 30  1  0
 35 36  3  0
 36 37  1  0
 38 39  3  0
  3  7  1  0
  6 12  1  0
 10 17  1  0
 16 22  1  0
 13 23  1  0
  8 27  1  0
 24 34  1  0
 32 37  1  0
 30 39  1  0
M  END

