
     RDKit          2D

 35 40  0  0  0  0  0  0  0  0999 V2000
   -1.2135   -2.7256    0.0000 C   0  0  0  0  0  0  0  0  0  0  0  0
   -0.0000   -3.6073    0.0000 C   0  0  0  0  0  0  0  0  0  0  0  0
    1.2135   -2.7256    0.0000 N   0  0  0  0  0  0  0  0  0  0  0  0
    0.7500   -1.2990    0.0000 C   0  0  0  0  0  0  0  0  0  0  0  0
    1.5000    0.0000    0.0000 C   0  0  0  0  0  0  0  0  0  0  0  0
    0.7500    1.2990    0.0000 C   0  0  0  0  0  0  0  0  0  0  0  0
   -0.7500    1.2990    0.0000 C   0  0  0  0  0  0  0  0  0  0  0  0
   -1.5000    0.0000    0.0000 C   0  0  0  0  0  0  0  0  0  0  0  0
   -0.7500   -1.2990    0.0000 C   0  0  0  0  0  0  0  0  0  0  0  0
   -1.8373   -5.6601    0.0000 N   0  0  0  0  0  0  0  0  0  0  0  0
   -2.9520   -4.6564    0.0000 C   0  0  0  0  0  0  0  0  0  0  0  0
   -2.6401   -3.1891    0.0000 C   0  0  0  0  0  0  0  0  0  0  0  0
   -4.3786   -5.1199    0.0000 C   0  0  0  0  0  0  0  0  0  0  0  0
   -4.6904   -6.5871    0.0000 O   0  0  0  0  0  0  0  0  0  0  0  0
   -8.6583   -6.5105    0.0000 C   0  0  0  0  0  0  0  0  0  0  0  0
   -8.9702   -7.9777    0.0000 C   0  0  0  0  0  0  0  0  0  0  0  0
   -7.8555   -8.9814    0.0000 N   0  0  0  0  0  0  0  0  0  0  0  0
   -6.4289   -8.5179    0.0000 C   0  0  0  0  0  0  0  0  0  0  0  0
   -6.1170   -7.0506    0.0000 C   0  0  0  0  0  0  0  0  0  0  0  0
   -7.2317   -6.0469    0.0000 C   0  0  0  0  0  0  0  0  0  0  0  0
  -13.4903   -7.1177    0.0000 C   0  0  0  0  0  0  0  0  0  0  0  0
  -14.2403   -5.8186    0.0000 C   0  0  0  0  0  0  0  0  0  0  0  0
  -13.4903   -4.5196    0.0000 C   0  0  0  0  0  0  0  0  0  0  0  0
  -11.9903   -4.5196    0.0000 C   0  0  0  0  0  0  0  0  0  0  0  0
  -10.9866   -3.4049    0.0000 N   0  0  0  0  0  0  0  0  0  0  0  0
   -9.6162   -4.0150    0.0000 N   0  0  0  0  0  0  0  0  0  0  0  0
   -9.7730   -5.5068    0.0000 C   0  0  0  0  0  0  0  0  0  0  0  0
  -11.2403   -5.8186    0.0000 C   0  0  0  0  0  0  0  0  0  0  0  0
  -11.9903   -7.1177    0.0000 C   0  0  0  0  0  0  0  0  0  0  0  0
  -14.2403   -8.4167    0.0000 N   0  0  0  0  0  0  0  0  0  0  0  0
  -15.7403   -8.4167    0.0000 C   0  0  0  0  0  0  0  0  0  0  0  0
  -16.4903   -9.7158    0.0000 C   0  0  0  0  0  0  0  0  0  0  0  0
  -15.7403  -11.0148    0.0000 O   0  0  0  0  0  0  0  0  0  0  0  0
  -14.2403  -11.0148    0.0000 C   0  0  0  0  0  0  0  0  0  0  0  0
  -13.4903   -9.7158    0.0000 C   0  0  0  0  0  0  0  0  0  0  0  0
  1  2  2  0
  2  3  1  0
  3  4  1  0
  4  5  2  0
  5  6  1  0
  6  7  2  0
  7  8  1  0
  8  9  2  0
  9  1  1  0
  9  4  1  0
 11 10  1  6
 11 12  1  0
 11 13  1  0
 13 14  1  0
 15 16  2  0
 16 17  1  0
 17 18  2  0
 18 19  1  0
 19 20  2  0
 20 15  1  0
 21 22  2  0
 22 23  1  0
 23 24  2  0
 24 25  1  0
 25 26  1  0
 26 27  2  0
 27 28  1  0
 28 29  2  0
 29 21  1  0
 28 24  1  0
 30 31  1  0
 31 32  1  0
 32 33  1  0
 33 34  1  0
 34 35  1  0
 35 30  1  0
  1 12  1  0
 14 19  1  0
 15 27  1  0
 21 30  1  0
M  END

