
     RDKit          2D

 33 37  0  0  0  0  0  0  0  0999 V2000
    8.2500   -3.8971    0.0000 C   0  0  0  0  0  0  0  0  0  0  0  0
    7.5000   -2.5981    0.0000 O   0  0  0  0  0  0  0  0  0  0  0  0
    6.0000   -2.5981    0.0000 C   0  0  0  0  0  0  0  0  0  0  0  0
    5.2500   -1.2990    0.0000 C   0  0  0  0  0  0  0  0  0  0  0  0
    3.7500   -1.2990    0.0000 N   0  0  0  0  0  0  0  0  0  0  0  0
    3.0000    0.0000    0.0000 C   0  0  0  0  0  0  0  0  0  0  0  0
    3.7500    1.2990    0.0000 O   0  0  0  0  0  0  0  0  0  0  0  0
    1.5000    0.0000    0.0000 C   0  0  0  0  0  0  0  0  0  0  0  0
    0.7500   -1.2990    0.0000 C   0  0  0  0  0  0  0  0  0  0  0  0
   -0.7500   -1.2990    0.0000 C   0  0  0  0  0  0  0  0  0  0  0  0
   -1.5000    0.0000    0.0000 C   0  0  0  0  0  0  0  0  0  0  0  0
   -3.0000    0.0000    0.0000 C   0  0  0  0  0  0  0  0  0  0  0  0
   -3.8817   -1.2135    0.0000 C   0  0  0  0  0  0  0  0  0  0  0  0
   -3.4182   -2.6401    0.0000 C   0  0  0  0  0  0  0  0  0  0  0  0
   -4.7426   -3.3443    0.0000 S   0  0  0  0  0  0  0  0  0  0  0  0
   -5.4468   -2.0199    0.0000 O   0  0  0  0  0  0  0  0  0  0  0  0
   -4.0384   -4.6687    0.0000 O   0  0  0  0  0  0  0  0  0  0  0  0
   -6.0670   -4.0485    0.0000 C   0  0  0  0  0  0  0  0  0  0  0  0
   -6.8619   -5.3206    0.0000 C   0  0  0  0  0  0  0  0  0  0  0  0
   -7.5661   -3.9962    0.0000 C   0  0  0  0  0  0  0  0  0  0  0  0
   -2.4947   -3.8221    0.0000 C   0  0  0  0  0  0  0  0  0  0  0  0
   -1.9328   -2.4314    0.0000 C   0  0  0  0  0  0  0  0  0  0  0  0
   -5.3083   -0.7500    0.0000 N   0  0  0  0  0  0  0  0  0  0  0  0
   -5.3083    0.7500    0.0000 C   0  0  0  0  0  0  0  0  0  0  0  0
   -6.5218    1.6317    0.0000 C   0  0  0  0  0  0  0  0  0  0  0  0
   -7.9484    1.1682    0.0000 N   0  0  0  0  0  0  0  0  0  0  0  0
   -8.8301    2.3817    0.0000 C   0  0  0  0  0  0  0  0  0  0  0  0
  -10.3301    2.3817    0.0000 C   0  0  0  0  0  0  0  0  0  0  0  0
   -7.9484    3.5952    0.0000 C   0  0  0  0  0  0  0  0  0  0  0  0
   -6.5218    3.1317    0.0000 S   0  0  0  0  0  0  0  0  0  0  0  0
   -3.8817    1.2135    0.0000 O   0  0  0  0  0  0  0  0  0  0  0  0
   -0.7500    1.2990    0.0000 C   0  0  0  0  0  0  0  0  0  0  0  0
    0.7500    1.2990    0.0000 N   0  0  0  0  0  0  0  0  0  0  0  0
  1  2  1  0
  2  3  1  0
  3  4  1  0
  4  5  1  0
  5  6  1  0
  6  7  2  0
  6  8  1  0
  8  9  2  0
  9 10  1  0
 10 11  2  0
 11 12  1  0
 12 13  2  0
 13 14  1  0
 14 15  1  0
 15 16  2  0
 15 17  2  0
 15 18  1  0
 18 19  1  0
 19 20  1  0
 14 21  1  0
 21 22  1  0
 13 23  1  0
 23 24  2  0
 24 25  1  0
 25 26  2  0
 26 27  1  0
 27 28  1  1
 27 29  1  0
 29 30  1  0
 24 31  1  0
 11 32  1  0
 32 33  2  0
 33  8  1  0
 31 12  1  0
 22 14  1  0
 30 25  1  0
 20 18  1  0
M  END

