
     RDKit          2D

 34 38  0  0  0  0  0  0  0  0999 V2000
    0.7500   -3.8971    0.0000 C   0  0  0  0  0  0  0  0  0  0  0  0
   -0.7500   -3.8971    0.0000 C   0  0  0  0  0  0  0  0  0  0  0  0
   -1.5000   -2.5981    0.0000 C   0  0  0  0  0  0  0  0  0  0  0  0
   -0.7500   -1.2990    0.0000 C   0  0  0  0  0  0  0  0  0  0  0  0
    0.7500   -1.2990    0.0000 C   0  0  0  0  0  0  0  0  0  0  0  0
    1.5000   -2.5981    0.0000 C   0  0  0  0  0  0  0  0  0  0  0  0
    1.5000    0.0000    0.0000 C   0  0  0  0  0  0  0  0  0  0  0  0
    0.7500    1.2990    0.0000 C   0  0  0  0  0  0  0  0  0  0  0  0
   -0.7500    1.2990    0.0000 C   0  0  0  0  0  0  0  0  0  0  0  0
   -1.5000    0.0000    0.0000 C   0  0  0  0  0  0  0  0  0  0  0  0
    0.7500   -6.4952    0.0000 C   0  0  0  0  0  0  0  0  0  0  0  0
    1.5000   -5.1962    0.0000 O   0  0  0  0  0  0  0  0  0  0  0  0
    3.3037   -9.4182    0.0000 C   0  0  0  0  0  0  0  0  0  0  0  0
    2.0046  -10.1682    0.0000 C   0  0  0  0  0  0  0  0  0  0  0  0
    0.8899   -9.1645    0.0000 C   0  0  0  0  0  0  0  0  0  0  0  0
    1.5000   -7.7942    0.0000 C   0  0  0  0  0  0  0  0  0  0  0  0
    2.9918   -7.9510    0.0000 S   0  0  0  0  0  0  0  0  0  0  0  0
    7.4146  -11.2486    0.0000 O   0  0  0  0  0  0  0  0  0  0  0  0
    6.2011  -12.1302    0.0000 C   0  0  0  0  0  0  0  0  0  0  0  0
    4.8308  -11.5201    0.0000 C   0  0  0  0  0  0  0  0  0  0  0  0
    4.6740  -10.0283    0.0000 C   0  0  0  0  0  0  0  0  0  0  0  0
    6.3579  -13.6220    0.0000 N   0  0  0  0  0  0  0  0  0  0  0  0
    7.7282  -14.2321    0.0000 C   0  0  0  0  0  0  0  0  0  0  0  0
    9.1437  -20.5250    0.0000 C   0  0  0  0  0  0  0  0  0  0  0  0
    7.6519  -20.6818    0.0000 C   0  0  0  0  0  0  0  0  0  0  0  0
    6.7703  -19.4682    0.0000 C   0  0  0  0  0  0  0  0  0  0  0  0
    7.3804  -18.0979    0.0000 C   0  0  0  0  0  0  0  0  0  0  0  0
    6.7703  -16.7276    0.0000 N   0  0  0  0  0  0  0  0  0  0  0  0
    7.8850  -15.7239    0.0000 C   0  0  0  0  0  0  0  0  0  0  0  0
    9.1840  -16.4739    0.0000 S   0  0  0  0  0  0  0  0  0  0  0  0
    8.8722  -17.9411    0.0000 C   0  0  0  0  0  0  0  0  0  0  0  0
    9.7538  -19.1547    0.0000 C   0  0  0  0  0  0  0  0  0  0  0  0
    9.4153  -23.1088    0.0000 C   0  0  0  0  0  0  0  0  0  0  0  0
   10.0254  -21.7385    0.0000 O   0  0  0  0  0  0  0  0  0  0  0  0
  1  2  2  0
  2  3  1  0
  3  4  2  0
  4  5  1  0
  5  6  2  0
  5  7  1  0
  7  8  1  0
  8  9  1  0
  9 10  1  0
  6  1  1  0
 10  4  1  0
 11 12  1  0
 13 14  2  0
 14 15  1  0
 15 16  2  0
 16 17  1  0
 17 13  1  0
 18 19  2  0
 19 20  1  0
 20 21  2  0
 19 22  1  0
 22 23  1  0
 24 25  2  0
 25 26  1  0
 26 27  2  0
 27 28  1  0
 28 29  2  0
 29 30  1  0
 30 31  1  0
 31 32  2  0
 32 24  1  0
 31 27  1  0
 33 34  1  0
  1 12  1  0
 11 16  1  0
 13 21  1  0
 23 29  1  0
 24 34  1  0
M  END

