
     RDKit          2D

 35 39  0  0  0  0  0  0  0  0999 V2000
   -7.7227   -2.1088    0.0000 C   0  0  0  0  0  0  0  0  0  0  0  0
   -6.2961   -1.6453    0.0000 O   0  0  0  0  0  0  0  0  0  0  0  0
   -5.1814   -2.6490    0.0000 C   0  0  0  0  0  0  0  0  0  0  0  0
   -3.7548   -2.1855    0.0000 C   0  0  0  0  0  0  0  0  0  0  0  0
   -2.6401   -3.1891    0.0000 N   0  0  0  0  0  0  0  0  0  0  0  0
   -2.9520   -4.6564    0.0000 C   0  0  0  0  0  0  0  0  0  0  0  0
   -0.0000   -3.6073    0.0000 C   0  0  0  0  0  0  0  0  0  0  0  0
    1.2135   -2.7256    0.0000 C   0  0  0  0  0  0  0  0  0  0  0  0
    0.7500   -1.2990    0.0000 C   0  0  0  0  0  0  0  0  0  0  0  0
    1.5000    0.0000    0.0000 C   0  0  0  0  0  0  0  0  0  0  0  0
    0.7500    1.2990    0.0000 C   0  0  0  0  0  0  0  0  0  0  0  0
   -0.7500    1.2990    0.0000 C   0  0  0  0  0  0  0  0  0  0  0  0
   -1.5000    0.0000    0.0000 C   0  0  0  0  0  0  0  0  0  0  0  0
   -0.7500   -1.2990    0.0000 C   0  0  0  0  0  0  0  0  0  0  0  0
   -1.2135   -2.7256    0.0000 N   0  0  0  0  0  0  0  0  0  0  0  0
    3.1447   -5.5632    0.0000 C   0  0  0  0  0  0  0  0  0  0  0  0
    4.4438   -4.8132    0.0000 C   0  0  0  0  0  0  0  0  0  0  0  0
    4.1319   -3.3459    0.0000 O   0  0  0  0  0  0  0  0  0  0  0  0
    2.6401   -3.1891    0.0000 C   0  0  0  0  0  0  0  0  0  0  0  0
    2.0300   -4.5595    0.0000 O   0  0  0  0  0  0  0  0  0  0  0  0
    6.1822    0.3656    0.0000 N   0  0  0  0  0  0  0  0  0  0  0  0
    6.7923   -1.0047    0.0000 C   0  0  0  0  0  0  0  0  0  0  0  0
    5.6776   -2.0084    0.0000 C   0  0  0  0  0  0  0  0  0  0  0  0
    4.3786   -1.2584    0.0000 C   0  0  0  0  0  0  0  0  0  0  0  0
    2.9520   -1.7219    0.0000 C   0  0  0  0  0  0  0  0  0  0  0  0
    1.8373   -0.7182    0.0000 C   0  0  0  0  0  0  0  0  0  0  0  0
    2.1491    0.7490    0.0000 C   0  0  0  0  0  0  0  0  0  0  0  0
    3.5757    1.2125    0.0000 C   0  0  0  0  0  0  0  0  0  0  0  0
    4.6904    0.2088    0.0000 C   0  0  0  0  0  0  0  0  0  0  0  0
    9.1822    2.9637    0.0000 F   0  0  0  0  0  0  0  0  0  0  0  0
    8.4322    1.6647    0.0000 C   0  0  0  0  0  0  0  0  0  0  0  0
    9.1822    0.3656    0.0000 F   0  0  0  0  0  0  0  0  0  0  0  0
    6.9322    1.6647    0.0000 O   0  0  0  0  0  0  0  0  0  0  0  0
    1.6176   -7.6651    0.0000 N   0  0  0  0  0  0  0  0  0  0  0  0
    2.9879   -7.0549    0.0000 C   0  0  0  0  0  0  0  0  0  0  0  0
  1  2  1  0
  2  3  1  0
  3  4  1  0
  4  5  1  0
  5  6  1  0
  7  8  1  0
  8  9  1  1
  9 10  2  0
 10 11  1  0
 11 12  2  0
 12 13  1  0
 13 14  2  0
 14 15  1  0
  7 15  1  6
 14  9  1  0
 16 17  1  0
 17 18  1  0
 18 19  1  0
 19 20  1  0
 20 16  1  0
 21 22  1  0
 22 23  1  0
 23 24  1  0
 24 25  2  0
 25 26  1  0
 26 27  2  0
 27 28  1  0
 28 29  2  0
 29 21  1  0
 29 24  1  0
 30 31  1  0
 31 32  1  0
 31 33  1  0
 34 35  1  0
  5 15  1  0
  8 19  1  0
 19 25  1  1
 21 33  1  0
 16 35  1  6
M  END

