
     RDKit          2D

 35 39  0  0  0  0  0  0  0  0999 V2000
   -2.2500   -3.8971    0.0000 N   0  0  0  0  0  0  0  0  0  0  0  0
   -1.5000   -2.5981    0.0000 C   0  0  0  0  0  0  0  0  0  0  0  0
    0.7500   -1.2990    0.0000 C   0  0  0  0  0  0  0  0  0  0  0  0
    1.5000    0.0000    0.0000 N   0  0  0  0  0  0  0  0  0  0  0  0
    0.7500    1.2990    0.0000 C   0  0  0  0  0  0  0  0  0  0  0  0
   -0.7500    1.2990    0.0000 N   0  0  0  0  0  0  0  0  0  0  0  0
   -1.5000    0.0000    0.0000 C   0  0  0  0  0  0  0  0  0  0  0  0
   -0.7500   -1.2990    0.0000 C   0  0  0  0  0  0  0  0  0  0  0  0
   -3.0000    0.0000    0.0000 N   0  0  0  0  0  0  0  0  0  0  0  0
    3.0000   -5.1962    0.0000 C   0  0  0  0  0  0  0  0  0  0  0  0
    3.7500   -3.8971    0.0000 C   0  0  0  0  0  0  0  0  0  0  0  0
    3.0000   -2.5981    0.0000 C   0  0  0  0  0  0  0  0  0  0  0  0
    1.5000   -2.5981    0.0000 N   0  0  0  0  0  0  0  0  0  0  0  0
    0.7500   -3.8971    0.0000 C   0  0  0  0  0  0  0  0  0  0  0  0
    1.5000   -5.1962    0.0000 C   0  0  0  0  0  0  0  0  0  0  0  0
    5.5537   -8.1192    0.0000 C   0  0  0  0  0  0  0  0  0  0  0  0
    4.2546   -8.8692    0.0000 C   0  0  0  0  0  0  0  0  0  0  0  0
    3.1399   -7.8655    0.0000 N   0  0  0  0  0  0  0  0  0  0  0  0
    3.7500   -6.4952    0.0000 C   0  0  0  0  0  0  0  0  0  0  0  0
    5.2418   -6.6520    0.0000 N   0  0  0  0  0  0  0  0  0  0  0  0
    1.2091   -9.6040    0.0000 C   0  0  0  0  0  0  0  0  0  0  0  0
    1.6727   -8.1774    0.0000 C   0  0  0  0  0  0  0  0  0  0  0  0
   -0.2581   -9.9158    0.0000 N   0  0  0  0  0  0  0  0  0  0  0  0
   -1.5161   -9.0989    0.0000 C   0  0  0  0  0  0  0  0  0  0  0  0
   -2.3330  -10.3569    0.0000 C   0  0  0  0  0  0  0  0  0  0  0  0
   -1.0750  -11.1738    0.0000 C   0  0  0  0  0  0  0  0  0  0  0  0
    8.4511  -10.8312    0.0000 C   0  0  0  0  0  0  0  0  0  0  0  0
    7.0808  -10.2211    0.0000 C   0  0  0  0  0  0  0  0  0  0  0  0
    6.9240   -8.7293    0.0000 C   0  0  0  0  0  0  0  0  0  0  0  0
    8.1375   -7.8476    0.0000 C   0  0  0  0  0  0  0  0  0  0  0  0
    9.5078   -8.4577    0.0000 C   0  0  0  0  0  0  0  0  0  0  0  0
    9.6646   -9.9495    0.0000 N   0  0  0  0  0  0  0  0  0  0  0  0
    7.3943  -13.2047    0.0000 C   0  0  0  0  0  0  0  0  0  0  0  0
    8.6079  -12.3230    0.0000 C   0  0  0  0  0  0  0  0  0  0  0  0
    9.9782  -12.9331    0.0000 C   0  0  0  0  0  0  0  0  0  0  0  0
  1  2  3  0
  3  4  2  0
  4  5  1  0
  5  6  2  0
  6  7  1  0
  7  8  2  0
  8  3  1  0
 10 11  1  0
 11 12  1  0
 12 13  1  0
 13 14  1  0
 14 15  1  0
 15 10  1  0
 16 17  2  0
 17 18  1  0
 18 19  1  0
 19 20  2  0
 20 16  1  0
 21 22  1  0
 23 24  1  0
 24 25  1  0
 25 26  1  0
 26 23  1  0
 27 28  2  0
 28 29  1  0
 29 30  2  0
 30 31  1  0
 31 32  2  0
 32 27  1  0
 33 34  1  0
 34 35  1  0
  2  8  1  0
  7  9  1  0
  3 13  1  0
 10 19  1  0
 18 22  1  0
 21 23  1  0
 16 29  1  0
 27 34  1  0
M  END

