
     RDKit          2D

 41 45  0  0  0  0  0  0  0  0999 V2000
   -2.1470    1.7537    0.0000 C   0  0  0  0  0  0  0  0  0  0  0  0
   -1.8351    3.2209    0.0000 C   0  0  0  0  0  0  0  0  0  0  0  0
   -0.4086    3.6844    0.0000 C   0  0  0  0  0  0  0  0  0  0  0  0
    0.7062    2.6807    0.0000 C   0  0  0  0  0  0  0  0  0  0  0  0
    0.3943    1.2135    0.0000 C   0  0  0  0  0  0  0  0  0  0  0  0
    1.2760    0.0000    0.0000 C   0  0  0  0  0  0  0  0  0  0  0  0
    0.3943   -1.2135    0.0000 C   0  0  0  0  0  0  0  0  0  0  0  0
   -1.0323   -0.7500    0.0000 N   0  0  0  0  0  0  0  0  0  0  0  0
   -1.0323    0.7500    0.0000 C   0  0  0  0  0  0  0  0  0  0  0  0
   -4.3764    3.7611    0.0000 N   0  0  0  0  0  0  0  0  0  0  0  0
   -4.6883    2.2939    0.0000 C   0  0  0  0  0  0  0  0  0  0  0  0
   -3.5736    1.2902    0.0000 C   0  0  0  0  0  0  0  0  0  0  0  0
   -6.1149    1.8303    0.0000 C   0  0  0  0  0  0  0  0  0  0  0  0
   -7.2296    2.8340    0.0000 O   0  0  0  0  0  0  0  0  0  0  0  0
  -11.1975    2.9107    0.0000 C   0  0  0  0  0  0  0  0  0  0  0  0
  -11.5094    1.4435    0.0000 C   0  0  0  0  0  0  0  0  0  0  0  0
  -10.3946    0.4398    0.0000 N   0  0  0  0  0  0  0  0  0  0  0  0
   -8.9681    0.9033    0.0000 C   0  0  0  0  0  0  0  0  0  0  0  0
   -8.6562    2.3705    0.0000 C   0  0  0  0  0  0  0  0  0  0  0  0
   -9.7709    3.3742    0.0000 C   0  0  0  0  0  0  0  0  0  0  0  0
  -12.0003    5.3816    0.0000 C   0  0  0  0  0  0  0  0  0  0  0  0
  -12.3122    3.9144    0.0000 C   0  0  0  0  0  0  0  0  0  0  0  0
  -13.9179    8.8562    0.0000 C   0  0  0  0  0  0  0  0  0  0  0  0
  -15.3445    8.3927    0.0000 C   0  0  0  0  0  0  0  0  0  0  0  0
  -15.6564    6.9255    0.0000 C   0  0  0  0  0  0  0  0  0  0  0  0
  -14.5416    5.9218    0.0000 N   0  0  0  0  0  0  0  0  0  0  0  0
  -13.1151    6.3853    0.0000 C   0  0  0  0  0  0  0  0  0  0  0  0
  -12.8032    7.8525    0.0000 C   0  0  0  0  0  0  0  0  0  0  0  0
  -12.9823   13.2579    0.0000 N   0  0  0  0  0  0  0  0  0  0  0  0
  -11.8676   12.2542    0.0000 C   0  0  0  0  0  0  0  0  0  0  0  0
  -12.1795   10.7870    0.0000 C   0  0  0  0  0  0  0  0  0  0  0  0
  -13.6060   10.3234    0.0000 O   0  0  0  0  0  0  0  0  0  0  0  0
  -10.4410   12.7177    0.0000 C   0  0  0  0  0  0  0  0  0  0  0  0
  -10.1291   14.1849    0.0000 O   0  0  0  0  0  0  0  0  0  0  0  0
   -8.7026   14.6485    0.0000 C   0  0  0  0  0  0  0  0  0  0  0  0
   -8.3907   16.1157    0.0000 C   0  0  0  0  0  0  0  0  0  0  0  0
   -6.9641   16.5792    0.0000 C   0  0  0  0  0  0  0  0  0  0  0  0
   -6.6522   18.0464    0.0000 C   0  0  0  0  0  0  0  0  0  0  0  0
   -7.7670   19.0501    0.0000 C   0  0  0  0  0  0  0  0  0  0  0  0
   -9.1935   18.5866    0.0000 C   0  0  0  0  0  0  0  0  0  0  0  0
   -9.5054   17.1194    0.0000 C   0  0  0  0  0  0  0  0  0  0  0  0
  1  2  2  0
  2  3  1  0
  3  4  2  0
  4  5  1  0
  5  6  1  0
  6  7  2  0
  7  8  1  0
  8  9  1  0
  9  1  1  0
  9  5  2  0
 11 10  1  1
 11 12  1  0
 11 13  1  0
 13 14  1  0
 15 16  2  0
 16 17  1  0
 17 18  2  0
 18 19  1  0
 19 20  2  0
 20 15  1  0
 21 22  2  0
 23 24  2  0
 24 25  1  0
 25 26  2  0
 26 27  1  0
 27 28  2  0
 28 23  1  0
 30 29  1  1
 30 31  1  0
 31 32  1  0
 30 33  1  0
 33 34  1  0
 34 35  1  0
 36 37  2  0
 37 38  1  0
 38 39  2  0
 39 40  1  0
 40 41  2  0
 41 36  1  0
  1 12  1  0
 14 19  1  0
 15 22  1  0
 21 27  1  0
 23 32  1  0
 35 36  1  0
M  END

