
     RDKit          2D

 35 39  0  0  0  0  0  0  0  0999 V2000
    7.2760    2.5981    0.0000 C   0  0  0  0  0  0  0  0  0  0  0  0
    5.7760    2.5981    0.0000 O   0  0  0  0  0  0  0  0  0  0  0  0
    5.0260    1.2990    0.0000 C   0  0  0  0  0  0  0  0  0  0  0  0
    3.5260    1.2990    0.0000 C   0  0  0  0  0  0  0  0  0  0  0  0
    2.7760    0.0000    0.0000 N   0  0  0  0  0  0  0  0  0  0  0  0
    3.5260   -1.2990    0.0000 C   0  0  0  0  0  0  0  0  0  0  0  0
    1.2760    0.0000    0.0000 C   0  0  0  0  0  0  0  0  0  0  0  0
    0.3943    1.2135    0.0000 N   0  0  0  0  0  0  0  0  0  0  0  0
   -1.0323    0.7500    0.0000 C   0  0  0  0  0  0  0  0  0  0  0  0
   -2.3313    1.5000    0.0000 C   0  0  0  0  0  0  0  0  0  0  0  0
   -2.3313    3.0000    0.0000 C   0  0  0  0  0  0  0  0  0  0  0  0
   -1.0323    3.7500    0.0000 C   0  0  0  0  0  0  0  0  0  0  0  0
   -1.0323    5.2500    0.0000 C   0  0  0  0  0  0  0  0  0  0  0  0
   -2.3313    6.0000    0.0000 C   0  0  0  0  0  0  0  0  0  0  0  0
   -3.6304    5.2500    0.0000 C   0  0  0  0  0  0  0  0  0  0  0  0
   -3.6304    3.7500    0.0000 C   0  0  0  0  0  0  0  0  0  0  0  0
   -5.0569    3.2865    0.0000 C   0  0  0  0  0  0  0  0  0  0  0  0
   -5.9386    4.5000    0.0000 N   0  0  0  0  0  0  0  0  0  0  0  0
   -5.0569    5.7135    0.0000 N   0  0  0  0  0  0  0  0  0  0  0  0
   -3.6304    0.7500    0.0000 N   0  0  0  0  0  0  0  0  0  0  0  0
   -3.6304   -0.7500    0.0000 C   0  0  0  0  0  0  0  0  0  0  0  0
   -4.9294   -1.5000    0.0000 C   0  0  0  0  0  0  0  0  0  0  0  0
   -6.2284   -0.7500    0.0000 N   0  0  0  0  0  0  0  0  0  0  0  0
   -6.2284    0.7500    0.0000 C   0  0  0  0  0  0  0  0  0  0  0  0
   -7.5275    1.5000    0.0000 C   0  0  0  0  0  0  0  0  0  0  0  0
   -8.8265    0.7500    0.0000 N   0  0  0  0  0  0  0  0  0  0  0  0
  -10.1256    1.5000    0.0000 S   0  0  0  0  0  0  0  0  0  0  0  0
  -11.4246    2.2500    0.0000 C   0  0  0  0  0  0  0  0  0  0  0  0
  -10.8756    0.2010    0.0000 O   0  0  0  0  0  0  0  0  0  0  0  0
   -9.3756    2.7990    0.0000 O   0  0  0  0  0  0  0  0  0  0  0  0
   -8.8265   -0.7500    0.0000 C   0  0  0  0  0  0  0  0  0  0  0  0
   -7.5275   -1.5000    0.0000 C   0  0  0  0  0  0  0  0  0  0  0  0
   -2.3313   -1.5000    0.0000 N   0  0  0  0  0  0  0  0  0  0  0  0
   -1.0323   -0.7500    0.0000 C   0  0  0  0  0  0  0  0  0  0  0  0
    0.3943   -1.2135    0.0000 N   0  0  0  0  0  0  0  0  0  0  0  0
  1  2  1  0
  2  3  1  0
  3  4  1  0
  4  5  1  0
  5  6  1  0
  5  7  1  0
  7  8  2  0
  8  9  1  0
  9 10  2  0
 10 11  1  0
 11 12  2  0
 12 13  1  0
 13 14  2  0
 14 15  1  0
 15 16  2  0
 16 17  1  0
 17 18  2  0
 18 19  1  0
 10 20  1  0
 20 21  2  0
 21 22  1  0
 22 23  1  0
 23 24  1  0
 24 25  1  0
 25 26  1  0
 26 27  1  0
 27 28  1  0
 27 29  2  0
 27 30  2  0
 26 31  1  0
 31 32  1  0
 21 33  1  0
 33 34  2  0
 34 35  1  0
 35  7  1  0
 34  9  1  0
 16 11  1  0
 32 23  1  0
 19 15  1  0
M  END

