
     RDKit          2D

 36 40  0  0  0  0  0  0  0  0999 V2000
    8.2500   -1.2990    0.0000 C   0  0  0  0  0  0  0  0  0  0  0  0
    7.5000   -2.5981    0.0000 N   0  0  0  0  0  0  0  0  0  0  0  0
    3.0000   -2.5981    0.0000 C   0  0  0  0  0  0  0  0  0  0  0  0
    3.7500   -1.2990    0.0000 C   0  0  0  0  0  0  0  0  0  0  0  0
    5.2500   -1.2990    0.0000 C   0  0  0  0  0  0  0  0  0  0  0  0
    6.0000   -2.5981    0.0000 C   0  0  0  0  0  0  0  0  0  0  0  0
    5.2500   -3.8971    0.0000 C   0  0  0  0  0  0  0  0  0  0  0  0
    3.7500   -3.8971    0.0000 C   0  0  0  0  0  0  0  0  0  0  0  0
    1.5000   -2.5981    0.0000 N   0  0  0  0  0  0  0  0  0  0  0  0
   -0.7500   -3.8971    0.0000 C   0  0  0  0  0  0  0  0  0  0  0  0
   -1.5000   -5.1962    0.0000 C   0  0  0  0  0  0  0  0  0  0  0  0
   -0.7500   -6.4952    0.0000 C   0  0  0  0  0  0  0  0  0  0  0  0
    0.7500   -6.4952    0.0000 C   0  0  0  0  0  0  0  0  0  0  0  0
    1.5000   -5.1962    0.0000 N   0  0  0  0  0  0  0  0  0  0  0  0
    0.7500   -3.8971    0.0000 C   0  0  0  0  0  0  0  0  0  0  0  0
   -1.5000   -9.2942    0.0000 C   0  0  0  0  0  0  0  0  0  0  0  0
   -2.7990   -8.5442    0.0000 C   0  0  0  0  0  0  0  0  0  0  0  0
   -1.5000   -7.7942    0.0000 C   0  0  0  0  0  0  0  0  0  0  0  0
   -2.8273  -12.2755    0.0000 O   0  0  0  0  0  0  0  0  0  0  0  0
   -1.3601  -11.9636    0.0000 C   0  0  0  0  0  0  0  0  0  0  0  0
   -0.2454  -12.9673    0.0000 N   0  0  0  0  0  0  0  0  0  0  0  0
    1.0537  -12.2173    0.0000 C   0  0  0  0  0  0  0  0  0  0  0  0
    0.7418  -10.7501    0.0000 C   0  0  0  0  0  0  0  0  0  0  0  0
   -0.7500  -10.5933    0.0000 N   0  0  0  0  0  0  0  0  0  0  0  0
   -0.5590  -15.9508    0.0000 C   0  0  0  0  0  0  0  0  0  0  0  0
   -0.4022  -14.4591    0.0000 S   0  0  0  0  0  0  0  0  0  0  0  0
   -1.8940  -14.3023    0.0000 O   0  0  0  0  0  0  0  0  0  0  0  0
    1.0896  -14.6159    0.0000 O   0  0  0  0  0  0  0  0  0  0  0  0
   -1.5000    0.0000    0.0000 C   0  0  0  0  0  0  0  0  0  0  0  0
   -3.0000    0.0000    0.0000 N   0  0  0  0  0  0  0  0  0  0  0  0
   -3.7500   -1.2990    0.0000 C   0  0  0  0  0  0  0  0  0  0  0  0
   -3.0000   -2.5981    0.0000 C   0  0  0  0  0  0  0  0  0  0  0  0
   -1.5000   -2.5981    0.0000 C   0  0  0  0  0  0  0  0  0  0  0  0
   -0.7500   -1.2990    0.0000 N   0  0  0  0  0  0  0  0  0  0  0  0
   -5.2500   -1.2990    0.0000 N   0  0  0  0  0  0  0  0  0  0  0  0
   -0.7500    1.2990    0.0000 C   0  0  0  0  0  0  0  0  0  0  0  0
  1  2  1  0
  3  4  2  0
  4  5  1  0
  5  6  2  0
  6  7  1  0
  7  8  2  0
  8  3  1  0
 10 11  2  0
 11 12  1  0
 12 13  2  0
 13 14  1  0
 14 15  2  0
 15 10  1  0
 16 17  1  0
 17 18  1  0
 18 16  1  0
 19 20  2  0
 20 21  1  0
 21 22  1  0
 22 23  1  0
 23 24  1  0
 24 20  1  0
 25 26  1  0
 26 27  2  0
 26 28  2  0
 29 30  2  0
 30 31  1  0
 31 32  2  0
 32 33  1  0
 33 34  2  0
 34 29  1  0
  2  6  1  0
  3  9  1  0
  9 15  1  0
 18 12  1  1
 16 24  1  1
 21 26  1  0
 10 33  1  0
 31 35  1  0
 29 36  1  0
M  END

