
     RDKit          2D

 36 41  0  0  0  0  0  0  0  0999 V2000
   -0.8523   -2.2256    0.0000 N   0  0  0  0  0  0  0  0  0  0  0  0
   -1.3159   -3.6522    0.0000 C   0  0  0  0  0  0  0  0  0  0  0  0
   -0.3122   -4.7669    0.0000 C   0  0  0  0  0  0  0  0  0  0  0  0
    1.1551   -4.4551    0.0000 O   0  0  0  0  0  0  0  0  0  0  0  0
    1.6186   -3.0285    0.0000 C   0  0  0  0  0  0  0  0  0  0  0  0
    0.6149   -1.9138    0.0000 C   0  0  0  0  0  0  0  0  0  0  0  0
   -1.5442    0.3563    0.0000 C   0  0  0  0  0  0  0  0  0  0  0  0
   -2.8432    1.1063    0.0000 C   0  0  0  0  0  0  0  0  0  0  0  0
   -3.9579    0.1026    0.0000 C   0  0  0  0  0  0  0  0  0  0  0  0
   -5.4497    0.2594    0.0000 C   0  0  0  0  0  0  0  0  0  0  0  0
   -6.3314   -0.9541    0.0000 C   0  0  0  0  0  0  0  0  0  0  0  0
   -5.7213   -2.3245    0.0000 C   0  0  0  0  0  0  0  0  0  0  0  0
   -4.2295   -2.4812    0.0000 C   0  0  0  0  0  0  0  0  0  0  0  0
   -3.3478   -1.2677    0.0000 C   0  0  0  0  0  0  0  0  0  0  0  0
   -1.8560   -1.1109    0.0000 N   0  0  0  0  0  0  0  0  0  0  0  0
   -4.2135    4.7000    0.0000 C   0  0  0  0  0  0  0  0  0  0  0  0
   -5.2172    3.5852    0.0000 C   0  0  0  0  0  0  0  0  0  0  0  0
   -4.4672    2.2862    0.0000 O   0  0  0  0  0  0  0  0  0  0  0  0
   -3.0000    2.5981    0.0000 C   0  0  0  0  0  0  0  0  0  0  0  0
   -2.8432    4.0899    0.0000 O   0  0  0  0  0  0  0  0  0  0  0  0
    1.5000    5.1962    0.0000 N   0  0  0  0  0  0  0  0  0  0  0  0
    0.7500    6.4952    0.0000 C   0  0  0  0  0  0  0  0  0  0  0  0
   -0.7500    6.4952    0.0000 C   0  0  0  0  0  0  0  0  0  0  0  0
   -1.5000    5.1962    0.0000 C   0  0  0  0  0  0  0  0  0  0  0  0
   -0.7500    3.8971    0.0000 C   0  0  0  0  0  0  0  0  0  0  0  0
   -1.5000    2.5981    0.0000 C   0  0  0  0  0  0  0  0  0  0  0  0
   -0.7500    1.2990    0.0000 C   0  0  0  0  0  0  0  0  0  0  0  0
    0.7500    1.2990    0.0000 C   0  0  0  0  0  0  0  0  0  0  0  0
    1.5000    2.5981    0.0000 C   0  0  0  0  0  0  0  0  0  0  0  0
    0.7500    3.8971    0.0000 C   0  0  0  0  0  0  0  0  0  0  0  0
    3.7500    3.8971    0.0000 O   0  0  0  0  0  0  0  0  0  0  0  0
    3.0000    5.1962    0.0000 C   0  0  0  0  0  0  0  0  0  0  0  0
    3.7500    6.4952    0.0000 C   0  0  0  0  0  0  0  0  0  0  0  0
    3.0000    7.7942    0.0000 O   0  0  0  0  0  0  0  0  0  0  0  0
    5.2500    6.4952    0.0000 C   0  0  0  0  0  0  0  0  0  0  0  0
    6.0000    7.7942    0.0000 O   0  0  0  0  0  0  0  0  0  0  0  0
  1  2  1  0
  2  3  1  0
  3  4  1  0
  4  5  1  0
  5  6  1  0
  6  1  1  0
  7  8  1  0
  8  9  1  1
  9 10  2  0
 10 11  1  0
 11 12  2  0
 12 13  1  0
 13 14  2  0
 14 15  1  0
  7 15  1  6
 14  9  1  0
 16 17  1  6
 17 18  1  0
 18 19  1  0
 19 20  1  0
 20 16  1  0
 21 22  1  0
 22 23  1  0
 23 24  1  0
 24 25  1  0
 25 26  2  0
 26 27  1  0
 27 28  2  0
 28 29  1  0
 29 30  2  0
 30 21  1  0
 30 25  1  0
 31 32  2  0
 32 33  1  0
 33 34  1  1
 33 35  1  0
 35 36  1  0
  1 15  1  0
  8 19  1  0
 19 26  1  1
 21 32  1  0
M  END

