
     RDKit          2D

 37 41  0  0  0  0  0  0  0  0999 V2000
  -11.1511   -9.3673    0.0000 F   0  0  0  0  0  0  0  0  0  0  0  0
  -10.8393   -7.9000    0.0000 C   0  0  0  0  0  0  0  0  0  0  0  0
  -12.3065   -7.5882    0.0000 F   0  0  0  0  0  0  0  0  0  0  0  0
   -9.3720   -8.2119    0.0000 F   0  0  0  0  0  0  0  0  0  0  0  0
   -8.7889   -4.5021    0.0000 C   0  0  0  0  0  0  0  0  0  0  0  0
   -9.9037   -3.4984    0.0000 C   0  0  0  0  0  0  0  0  0  0  0  0
  -11.3302   -3.9619    0.0000 C   0  0  0  0  0  0  0  0  0  0  0  0
  -11.6421   -5.4291    0.0000 C   0  0  0  0  0  0  0  0  0  0  0  0
  -10.5274   -6.4328    0.0000 C   0  0  0  0  0  0  0  0  0  0  0  0
   -9.1008   -5.9693    0.0000 C   0  0  0  0  0  0  0  0  0  0  0  0
   -8.1652   -1.5676    0.0000 O   0  0  0  0  0  0  0  0  0  0  0  0
   -7.0505   -2.5713    0.0000 C   0  0  0  0  0  0  0  0  0  0  0  0
   -5.6239   -2.1078    0.0000 N   0  0  0  0  0  0  0  0  0  0  0  0
   -7.3624   -4.0385    0.0000 N   0  0  0  0  0  0  0  0  0  0  0  0
   -3.5736    1.2902    0.0000 C   0  0  0  0  0  0  0  0  0  0  0  0
   -4.6883    2.2939    0.0000 C   0  0  0  0  0  0  0  0  0  0  0  0
   -6.1149    1.8303    0.0000 C   0  0  0  0  0  0  0  0  0  0  0  0
   -6.4268    0.3631    0.0000 C   0  0  0  0  0  0  0  0  0  0  0  0
   -5.3120   -0.6406    0.0000 C   0  0  0  0  0  0  0  0  0  0  0  0
   -3.8855   -0.1771    0.0000 C   0  0  0  0  0  0  0  0  0  0  0  0
   -0.4086    3.6844    0.0000 C   0  0  0  0  0  0  0  0  0  0  0  0
    0.7062    2.6807    0.0000 C   0  0  0  0  0  0  0  0  0  0  0  0
    0.3943    1.2135    0.0000 N   0  0  0  0  0  0  0  0  0  0  0  0
    1.2760    0.0000    0.0000 C   0  0  0  0  0  0  0  0  0  0  0  0
    0.3943   -1.2135    0.0000 C   0  0  0  0  0  0  0  0  0  0  0  0
   -1.0323   -0.7500    0.0000 N   0  0  0  0  0  0  0  0  0  0  0  0
   -1.0323    0.7500    0.0000 C   0  0  0  0  0  0  0  0  0  0  0  0
   -2.1470    1.7537    0.0000 C   0  0  0  0  0  0  0  0  0  0  0  0
   -1.8351    3.2209    0.0000 N   0  0  0  0  0  0  0  0  0  0  0  0
    1.3299    5.6152    0.0000 N   0  0  0  0  0  0  0  0  0  0  0  0
   -0.0967    5.1517    0.0000 C   0  0  0  0  0  0  0  0  0  0  0  0
    1.6418    7.0824    0.0000 C   0  0  0  0  0  0  0  0  0  0  0  0
    3.0684    7.5459    0.0000 C   0  0  0  0  0  0  0  0  0  0  0  0
    3.3802    9.0132    0.0000 C   0  0  0  0  0  0  0  0  0  0  0  0
    2.2655   10.0169    0.0000 N   0  0  0  0  0  0  0  0  0  0  0  0
    0.8389    9.5533    0.0000 C   0  0  0  0  0  0  0  0  0  0  0  0
    0.5271    8.0861    0.0000 C   0  0  0  0  0  0  0  0  0  0  0  0
  1  2  1  0
  2  3  1  0
  2  4  1  0
  5  6  2  0
  6  7  1  0
  7  8  2  0
  8  9  1  0
  9 10  2  0
 10  5  1  0
 11 12  2  0
 12 13  1  0
 12 14  1  0
 15 16  2  0
 16 17  1  0
 17 18  2  0
 18 19  1  0
 19 20  2  0
 20 15  1  0
 21 22  2  0
 22 23  1  0
 23 24  1  0
 24 25  2  0
 25 26  1  0
 26 27  2  0
 27 28  1  0
 28 29  2  0
 29 21  1  0
 27 23  1  0
 30 31  1  0
 32 33  2  0
 33 34  1  0
 34 35  2  0
 35 36  1  0
 36 37  2  0
 37 32  1  0
  2  9  1  0
  5 14  1  0
 13 19  1  0
 15 28  1  0
 21 31  1  0
 30 32  1  0
M  END

