
     RDKit          2D

 22 24  0  0  0  0  0  0  0  0999 V2000
    0.7500   -1.2990    0.0000 C   0  0  0  0  0  0  0  0  0  0  0  0
    1.5000    0.0000    0.0000 C   0  0  0  0  0  0  0  0  0  0  0  0
    0.7500    1.2990    0.0000 C   0  0  0  0  0  0  0  0  0  0  0  0
   -0.7500    1.2990    0.0000 C   0  0  0  0  0  0  0  0  0  0  0  0
   -1.5000    0.0000    0.0000 N   0  0  0  0  0  0  0  0  0  0  0  0
   -0.7500   -1.2990    0.0000 N   0  0  0  0  0  0  0  0  0  0  0  0
    1.5000   -2.5981    0.0000 C   0  0  0  0  0  0  0  0  0  0  0  0
    0.2454   -6.2711    0.0000 C   0  0  0  0  0  0  0  0  0  0  0  0
   -1.0537   -5.5211    0.0000 C   0  0  0  0  0  0  0  0  0  0  0  0
   -0.7418   -4.0539    0.0000 N   0  0  0  0  0  0  0  0  0  0  0  0
    0.7500   -3.8971    0.0000 C   0  0  0  0  0  0  0  0  0  0  0  0
    1.3601   -5.2674    0.0000 O   0  0  0  0  0  0  0  0  0  0  0  0
   -0.1024  -10.1369    0.0000 C   0  0  0  0  0  0  0  0  0  0  0  0
    1.3894   -9.9801    0.0000 N   0  0  0  0  0  0  0  0  0  0  0  0
    1.7012   -8.5129    0.0000 C   0  0  0  0  0  0  0  0  0  0  0  0
    0.4022   -7.7629    0.0000 C   0  0  0  0  0  0  0  0  0  0  0  0
   -0.7125   -8.7666    0.0000 S   0  0  0  0  0  0  0  0  0  0  0  0
    3.0715   -7.9028    0.0000 C   0  0  0  0  0  0  0  0  0  0  0  0
   -3.1024  -12.7350    0.0000 C   0  0  0  0  0  0  0  0  0  0  0  0
   -2.3524  -11.4360    0.0000 C   0  0  0  0  0  0  0  0  0  0  0  0
   -3.1024  -10.1369    0.0000 O   0  0  0  0  0  0  0  0  0  0  0  0
   -0.8524  -11.4360    0.0000 N   0  0  0  0  0  0  0  0  0  0  0  0
  1  2  2  0
  2  3  1  0
  3  4  2  0
  4  5  1  0
  5  6  2  0
  6  1  1  0
  8  9  2  0
  9 10  1  0
 10 11  2  0
 11 12  1  0
 12  8  1  0
 13 14  2  0
 14 15  1  0
 15 16  2  0
 16 17  1  0
 17 13  1  0
 19 20  1  0
 20 21  2  0
 20 22  1  0
  1  7  1  0
  7 11  1  0
  8 16  1  0
 15 18  1  0
 13 22  1  0
M  END

