
     RDKit          2D

 38 42  0  0  0  0  0  0  0  0999 V2000
    3.0000    0.0000    0.0000 N   0  0  0  0  0  0  0  0  0  0  0  0
    1.5000    0.0000    0.0000 C   0  0  0  0  0  0  0  0  0  0  0  0
    0.7500   -1.2990    0.0000 N   0  0  0  0  0  0  0  0  0  0  0  0
   -0.7500   -1.2990    0.0000 C   0  0  0  0  0  0  0  0  0  0  0  0
   -1.5000    0.0000    0.0000 N   0  0  0  0  0  0  0  0  0  0  0  0
   -0.7500    1.2990    0.0000 C   0  0  0  0  0  0  0  0  0  0  0  0
   -1.5000    2.5981    0.0000 C   0  0  0  0  0  0  0  0  0  0  0  0
   -0.7500    3.8971    0.0000 C   0  0  0  0  0  0  0  0  0  0  0  0
   -1.5000    5.1962    0.0000 C   0  0  0  0  0  0  0  0  0  0  0  0
   -3.0000    5.1962    0.0000 C   0  0  0  0  0  0  0  0  0  0  0  0
   -3.7500    3.8971    0.0000 N   0  0  0  0  0  0  0  0  0  0  0  0
   -5.2500    3.8971    0.0000 N   0  0  0  0  0  0  0  0  0  0  0  0
   -6.1317    2.6836    0.0000 C   0  0  0  0  0  0  0  0  0  0  0  0
   -7.5583    3.1471    0.0000 C   0  0  0  0  0  0  0  0  0  0  0  0
   -8.7718    2.2654    0.0000 C   0  0  0  0  0  0  0  0  0  0  0  0
  -10.1421    2.8755    0.0000 C   0  0  0  0  0  0  0  0  0  0  0  0
  -11.3556    1.9939    0.0000 N   0  0  0  0  0  0  0  0  0  0  0  0
  -12.8372    2.2285    0.0000 C   0  0  0  0  0  0  0  0  0  0  0  0
  -13.0718    0.7470    0.0000 C   0  0  0  0  0  0  0  0  0  0  0  0
  -11.5903    0.5123    0.0000 C   0  0  0  0  0  0  0  0  0  0  0  0
   -7.5583    4.6471    0.0000 N   0  0  0  0  0  0  0  0  0  0  0  0
   -6.1317    5.1106    0.0000 C   0  0  0  0  0  0  0  0  0  0  0  0
   -5.6682    6.5372    0.0000 C   0  0  0  0  0  0  0  0  0  0  0  0
   -4.2009    6.8491    0.0000 C   0  0  0  0  0  0  0  0  0  0  0  0
   -3.7374    8.2757    0.0000 C   0  0  0  0  0  0  0  0  0  0  0  0
   -2.2702    8.5875    0.0000 F   0  0  0  0  0  0  0  0  0  0  0  0
   -4.7411    9.3904    0.0000 C   0  0  0  0  0  0  0  0  0  0  0  0
   -6.2083    9.0785    0.0000 C   0  0  0  0  0  0  0  0  0  0  0  0
   -6.6718    7.6519    0.0000 C   0  0  0  0  0  0  0  0  0  0  0  0
   -8.1391    7.3401    0.0000 C   0  0  0  0  0  0  0  0  0  0  0  0
   -9.6063    7.0282    0.0000 F   0  0  0  0  0  0  0  0  0  0  0  0
   -8.4509    8.8073    0.0000 F   0  0  0  0  0  0  0  0  0  0  0  0
   -7.8272    5.8729    0.0000 F   0  0  0  0  0  0  0  0  0  0  0  0
   -3.0000    2.5981    0.0000 C   0  0  0  0  0  0  0  0  0  0  0  0
    0.7500    1.2990    0.0000 C   0  0  0  0  0  0  0  0  0  0  0  0
    1.5000    2.5981    0.0000 N   0  0  0  0  0  0  0  0  0  0  0  0
    3.0000    2.5981    0.0000 C   0  0  0  0  0  0  0  0  0  0  0  0
    3.7500    3.8971    0.0000 O   0  0  0  0  0  0  0  0  0  0  0  0
  1  2  1  0
  2  3  2  0
  3  4  1  0
  4  5  2  0
  5  6  1  0
  7  6  1  6
  7  8  1  0
  8  9  1  0
  9 10  1  0
 10 11  1  0
 11 12  1  0
 12 13  1  0
 13 14  2  0
 14 15  1  0
 15 16  1  0
 16 17  1  0
 17 18  1  0
 18 19  1  0
 19 20  1  0
 14 21  1  0
 21 22  2  0
 22 23  1  0
 23 24  2  0
 24 25  1  0
 25 26  1  0
 25 27  2  0
 27 28  1  0
 28 29  2  0
 29 30  1  0
 30 31  1  0
 30 32  1  0
 30 33  1  0
 11 34  1  0
  6 35  2  0
 35 36  1  0
 36 37  1  0
 37 38  2  0
 35  2  1  0
 34  7  1  0
 22 12  1  0
 29 23  1  0
 20 17  1  0
M  END

