
     RDKit          2D

 30 33  0  0  0  0  0  0  0  0999 V2000
    7.6970   -3.4736    0.0000 Cl  0  0  0  0  0  0  0  0  0  0  0  0
    5.7421   -5.2966    0.0000 C   0  0  0  0  0  0  0  0  0  0  0  0
    4.2430   -5.2442    0.0000 C   0  0  0  0  0  0  0  0  0  0  0  0
    3.8296   -3.8023    0.0000 C   0  0  0  0  0  0  0  0  0  0  0  0
    5.0731   -2.9635    0.0000 O   0  0  0  0  0  0  0  0  0  0  0  0
    6.2551   -3.8870    0.0000 C   0  0  0  0  0  0  0  0  0  0  0  0
    3.3086   -0.8479    0.0000 O   0  0  0  0  0  0  0  0  0  0  0  0
    2.1595   -1.8121    0.0000 C   0  0  0  0  0  0  0  0  0  0  0  0
    2.4200   -3.2893    0.0000 N   0  0  0  0  0  0  0  0  0  0  0  0
    0.7500   -1.2990    0.0000 C   0  0  0  0  0  0  0  0  0  0  0  0
    1.5000    0.0000    0.0000 C   0  0  0  0  0  0  0  0  0  0  0  0
    0.7500    1.2990    0.0000 C   0  0  0  0  0  0  0  0  0  0  0  0
   -0.7500    1.2990    0.0000 N   0  0  0  0  0  0  0  0  0  0  0  0
   -1.5000    0.0000    0.0000 C   0  0  0  0  0  0  0  0  0  0  0  0
   -0.7500   -1.2990    0.0000 C   0  0  0  0  0  0  0  0  0  0  0  0
    1.3781   -5.2176    0.0000 C   0  0  0  0  0  0  0  0  0  0  0  0
   -0.0314   -5.7307    0.0000 C   0  0  0  0  0  0  0  0  0  0  0  0
   -1.1805   -4.7665    0.0000 C   0  0  0  0  0  0  0  0  0  0  0  0
   -0.9200   -3.2893    0.0000 C   0  0  0  0  0  0  0  0  0  0  0  0
    0.4895   -2.7762    0.0000 C   0  0  0  0  0  0  0  0  0  0  0  0
    1.6386   -3.7404    0.0000 C   0  0  0  0  0  0  0  0  0  0  0  0
   -2.0691   -2.3251    0.0000 Cl  0  0  0  0  0  0  0  0  0  0  0  0
    2.5272   -6.1818    0.0000 Cl  0  0  0  0  0  0  0  0  0  0  0  0
    6.0679   -7.9496    0.0000 N   0  0  0  0  0  0  0  0  0  0  0  0
    7.2499   -8.8731    0.0000 N   0  0  0  0  0  0  0  0  0  0  0  0
    8.4934   -8.0344    0.0000 C   0  0  0  0  0  0  0  0  0  0  0  0
    8.0800   -6.5925    0.0000 C   0  0  0  0  0  0  0  0  0  0  0  0
    6.5809   -6.5401    0.0000 C   0  0  0  0  0  0  0  0  0  0  0  0
    9.0035   -5.4104    0.0000 Cl  0  0  0  0  0  0  0  0  0  0  0  0
    4.6260   -8.3631    0.0000 C   0  0  0  0  0  0  0  0  0  0  0  0
  2  3  1  0
  3  4  2  0
  4  5  1  0
  5  6  1  0
  6  2  2  0
  7  8  2  0
  8  9  1  0
 10 11  1  0
 11 12  1  0
 12 13  1  0
 13 14  1  0
 14 15  1  0
 15 10  1  0
 16 17  2  0
 17 18  1  0
 18 19  2  0
 19 20  1  0
 20 21  2  0
 21 16  1  0
 24 25  1  0
 25 26  2  0
 26 27  1  0
 27 28  2  0
 28 24  1  0
  1  6  1  0
  4  9  1  0
  8 10  1  0
 10 20  1  0
 19 22  1  0
 16 23  1  0
  2 28  1  0
 27 29  1  0
 24 30  1  0
M  END

