
     RDKit          2D

 28 31  0  0  0  0  0  0  0  0999 V2000
   -3.4846  -10.5760    0.0000 C   0  0  0  0  0  0  0  0  0  0  0  0
   -2.4809  -11.6907    0.0000 C   0  0  0  0  0  0  0  0  0  0  0  0
   -1.4772  -12.8054    0.0000 C   0  0  0  0  0  0  0  0  0  0  0  0
   -3.5956  -12.6944    0.0000 C   0  0  0  0  0  0  0  0  0  0  0  0
   -0.1527   -8.5851    0.0000 C   0  0  0  0  0  0  0  0  0  0  0  0
    0.8510   -9.6999    0.0000 C   0  0  0  0  0  0  0  0  0  0  0  0
    0.1010  -10.9989    0.0000 S   0  0  0  0  0  0  0  0  0  0  0  0
   -1.3662  -10.6870    0.0000 C   0  0  0  0  0  0  0  0  0  0  0  0
   -1.5230   -9.1952    0.0000 N   0  0  0  0  0  0  0  0  0  0  0  0
    1.5295   -6.5078    0.0000 C   0  0  0  0  0  0  0  0  0  0  0  0
    1.3727   -5.0160    0.0000 S   0  0  0  0  0  0  0  0  0  0  0  0
   -0.0945   -4.7042    0.0000 C   0  0  0  0  0  0  0  0  0  0  0  0
   -0.8445   -6.0032    0.0000 N   0  0  0  0  0  0  0  0  0  0  0  0
    0.1592   -7.1179    0.0000 C   0  0  0  0  0  0  0  0  0  0  0  0
   -2.1964   -3.1771    0.0000 O   0  0  0  0  0  0  0  0  0  0  0  0
   -0.7046   -3.3338    0.0000 C   0  0  0  0  0  0  0  0  0  0  0  0
    0.1771   -2.1203    0.0000 N   0  0  0  0  0  0  0  0  0  0  0  0
    0.8660    0.0000    0.0000 N   0  0  0  0  0  0  0  0  0  0  0  0
    0.5542    1.4672    0.0000 C   0  0  0  0  0  0  0  0  0  0  0  0
   -0.9376    1.6240    0.0000 C   0  0  0  0  0  0  0  0  0  0  0  0
   -1.5477    0.2537    0.0000 C   0  0  0  0  0  0  0  0  0  0  0  0
   -1.8596   -1.2135    0.0000 C   0  0  0  0  0  0  0  0  0  0  0  0
   -0.4330   -0.7500    0.0000 C   0  0  0  0  0  0  0  0  0  0  0  0
    4.8202   -0.3385    0.0000 N   0  0  0  0  0  0  0  0  0  0  0  0
    3.4499    0.2716    0.0000 C   0  0  0  0  0  0  0  0  0  0  0  0
    3.2931    1.7634    0.0000 O   0  0  0  0  0  0  0  0  0  0  0  0
    2.2363   -0.6101    0.0000 C   0  0  0  0  0  0  0  0  0  0  0  0
    2.8286   -7.2578    0.0000 C   0  0  0  0  0  0  0  0  0  0  0  0
  1  2  1  0
  2  3  1  0
  2  4  1  0
  5  6  2  0
  6  7  1  0
  7  8  1  0
  8  9  2  0
  9  5  1  0
 10 11  1  0
 11 12  1  0
 12 13  2  0
 13 14  1  0
 14 10  2  0
 15 16  2  0
 16 17  1  0
 18 19  1  0
 19 20  1  0
 21 20  1  1
 21 22  1  0
 22 23  1  0
 23 18  1  0
 23 21  1  0
 24 25  1  0
 25 26  2  0
 25 27  1  0
  2  8  1  0
  5 14  1  0
 12 16  1  0
 23 17  1  6
 18 27  1  0
 10 28  1  0
M  END

