
     RDKit          2D

 36 39  0  0  0  0  0  0  0  0999 V2000
    5.2500    3.8971    0.0000 C   0  0  0  0  0  0  0  0  0  0  0  0
    3.7500    3.8971    0.0000 C   0  0  0  0  0  0  0  0  0  0  0  0
    3.0000    2.5981    0.0000 C   0  0  0  0  0  0  0  0  0  0  0  0
    1.5000    2.5981    0.0000 C   0  0  0  0  0  0  0  0  0  0  0  0
    1.5000    0.0000    0.0000 C   0  0  0  0  0  0  0  0  0  0  0  0
    0.7500   -1.2990    0.0000 N   0  0  0  0  0  0  0  0  0  0  0  0
   -0.7500   -1.2990    0.0000 C   0  0  0  0  0  0  0  0  0  0  0  0
   -1.5000    0.0000    0.0000 N   0  0  0  0  0  0  0  0  0  0  0  0
   -0.7500    1.2990    0.0000 C   0  0  0  0  0  0  0  0  0  0  0  0
    0.7500    1.2990    0.0000 C   0  0  0  0  0  0  0  0  0  0  0  0
   -1.5000    5.1962    0.0000 N   0  0  0  0  0  0  0  0  0  0  0  0
   -3.0000    5.1962    0.0000 C   0  0  0  0  0  0  0  0  0  0  0  0
   -3.7500    3.8971    0.0000 C   0  0  0  0  0  0  0  0  0  0  0  0
   -3.0000    2.5981    0.0000 C   0  0  0  0  0  0  0  0  0  0  0  0
   -1.5000    2.5981    0.0000 C   0  0  0  0  0  0  0  0  0  0  0  0
   -0.7500    3.8971    0.0000 C   0  0  0  0  0  0  0  0  0  0  0  0
   -1.3601    7.8655    0.0000 C   0  0  0  0  0  0  0  0  0  0  0  0
   -0.2454    8.8692    0.0000 N   0  0  0  0  0  0  0  0  0  0  0  0
    1.0537    8.1192    0.0000 C   0  0  0  0  0  0  0  0  0  0  0  0
    0.7418    6.6520    0.0000 C   0  0  0  0  0  0  0  0  0  0  0  0
   -0.7500    6.4952    0.0000 N   0  0  0  0  0  0  0  0  0  0  0  0
    3.6375    7.8476    0.0000 C   0  0  0  0  0  0  0  0  0  0  0  0
    2.4240    8.7293    0.0000 C   0  0  0  0  0  0  0  0  0  0  0  0
    7.5917    8.1862    0.0000 C   0  0  0  0  0  0  0  0  0  0  0  0
    6.2213    7.5761    0.0000 C   0  0  0  0  0  0  0  0  0  0  0  0
    5.0078    8.4577    0.0000 N   0  0  0  0  0  0  0  0  0  0  0  0
    5.1646    9.9495    0.0000 C   0  0  0  0  0  0  0  0  0  0  0  0
    6.5349   10.5596    0.0000 C   0  0  0  0  0  0  0  0  0  0  0  0
   -5.7618    8.8011    0.0000 C   0  0  0  0  0  0  0  0  0  0  0  0
   -4.7581    9.9158    0.0000 C   0  0  0  0  0  0  0  0  0  0  0  0
   -3.2909    9.6040    0.0000 C   0  0  0  0  0  0  0  0  0  0  0  0
   -2.8273    8.1774    0.0000 C   0  0  0  0  0  0  0  0  0  0  0  0
   -3.8310    7.0627    0.0000 C   0  0  0  0  0  0  0  0  0  0  0  0
   -5.2982    7.3745    0.0000 C   0  0  0  0  0  0  0  0  0  0  0  0
   -7.2290    9.1130    0.0000 Cl  0  0  0  0  0  0  0  0  0  0  0  0
    3.0000    0.0000    0.0000 N   0  0  0  0  0  0  0  0  0  0  0  0
  1  2  1  0
  2  3  1  0
  3  4  1  0
  5  6  2  0
  6  7  1  0
  7  8  2  0
  8  9  1  0
  9 10  2  0
 10  5  1  0
 11 12  1  0
 12 13  1  0
 13 14  1  0
 14 15  1  0
 15 16  1  0
 16 11  1  0
 17 18  2  0
 18 19  1  0
 19 20  2  0
 20 21  1  0
 21 17  1  0
 22 23  1  0
 24 25  1  0
 25 26  1  0
 26 27  1  0
 27 28  1  0
 29 30  2  0
 30 31  1  0
 31 32  2  0
 32 33  1  0
 33 34  2  0
 34 29  1  0
  4 10  1  0
 15  9  1  1
 11 21  1  0
 19 23  1  0
 22 26  1  0
 17 32  1  0
 29 35  1  0
  5 36  1  0
M  END

