
     RDKit          2D

 26 29  0  0  0  0  0  0  0  0999 V2000
    0.8578   -2.6401    0.0000 C   0  0  0  0  0  0  0  0  0  0  0  0
    1.9725   -3.6438    0.0000 C   0  0  0  0  0  0  0  0  0  0  0  0
    0.5460   -4.1073    0.0000 C   0  0  0  0  0  0  0  0  0  0  0  0
    0.3943    1.2135    0.0000 C   0  0  0  0  0  0  0  0  0  0  0  0
    1.2760    0.0000    0.0000 C   0  0  0  0  0  0  0  0  0  0  0  0
    0.3943   -1.2135    0.0000 C   0  0  0  0  0  0  0  0  0  0  0  0
   -1.0323   -0.7500    0.0000 O   0  0  0  0  0  0  0  0  0  0  0  0
   -1.0323    0.7500    0.0000 N   0  0  0  0  0  0  0  0  0  0  0  0
    2.2844    3.1036    0.0000 C   0  0  0  0  0  0  0  0  0  0  0  0
    2.2844    4.6036    0.0000 S   0  0  0  0  0  0  0  0  0  0  0  0
    0.8578    5.0672    0.0000 C   0  0  0  0  0  0  0  0  0  0  0  0
   -0.0239    3.8536    0.0000 N   0  0  0  0  0  0  0  0  0  0  0  0
    0.8578    2.6401    0.0000 C   0  0  0  0  0  0  0  0  0  0  0  0
   -1.0729    6.8056    0.0000 O   0  0  0  0  0  0  0  0  0  0  0  0
    0.3943    6.4937    0.0000 C   0  0  0  0  0  0  0  0  0  0  0  0
    1.3980    7.6085    0.0000 C   0  0  0  0  0  0  0  0  0  0  0  0
    0.9345    9.0350    0.0000 C   0  0  0  0  0  0  0  0  0  0  0  0
    3.4299    9.9930    0.0000 N   0  0  0  0  0  0  0  0  0  0  0  0
    4.0401   11.3633    0.0000 C   0  0  0  0  0  0  0  0  0  0  0  0
    2.9253   12.3670    0.0000 C   0  0  0  0  0  0  0  0  0  0  0  0
    1.6263   11.6170    0.0000 C   0  0  0  0  0  0  0  0  0  0  0  0
    1.9382   10.1498    0.0000 C   0  0  0  0  0  0  0  0  0  0  0  0
    5.6799    8.6939    0.0000 N   0  0  0  0  0  0  0  0  0  0  0  0
    4.1799    8.6939    0.0000 C   0  0  0  0  0  0  0  0  0  0  0  0
    3.4299    7.3949    0.0000 O   0  0  0  0  0  0  0  0  0  0  0  0
    3.4979    2.2220    0.0000 C   0  0  0  0  0  0  0  0  0  0  0  0
  1  2  1  0
  2  3  1  0
  3  1  1  0
  4  5  1  0
  5  6  2  0
  6  7  1  0
  7  8  1  0
  8  4  2  0
  9 10  1  0
 10 11  1  0
 11 12  2  0
 12 13  1  0
 13  9  2  0
 15 14  1  6
 15 16  1  0
 16 17  1  0
 18 19  1  0
 19 20  1  0
 20 21  1  0
 21 22  1  0
 22 18  1  0
 23 24  1  0
 24 25  2  0
  1  6  1  0
  4 13  1  0
 11 15  1  0
 22 17  1  1
 18 24  1  0
  9 26  1  0
M  END

