
     RDKit          2D

 31 34  0  0  0  0  0  0  0  0999 V2000
   -6.2086   -1.4166    0.0000 F   0  0  0  0  0  0  0  0  0  0  0  0
   -4.7667   -1.0031    0.0000 C   0  0  0  0  0  0  0  0  0  0  0  0
   -5.1802    0.4387    0.0000 F   0  0  0  0  0  0  0  0  0  0  0  0
   -4.3533   -2.4450    0.0000 F   0  0  0  0  0  0  0  0  0  0  0  0
   -3.3248   -0.5897    0.0000 C   0  0  0  0  0  0  0  0  0  0  0  0
   -2.2458   -1.6317    0.0000 C   0  0  0  0  0  0  0  0  0  0  0  0
   -3.0846   -2.8752    0.0000 C   0  0  0  0  0  0  0  0  0  0  0  0
   -1.5883   -2.9799    0.0000 C   0  0  0  0  0  0  0  0  0  0  0  0
    0.3943    1.2135    0.0000 C   0  0  0  0  0  0  0  0  0  0  0  0
    1.2760    0.0000    0.0000 C   0  0  0  0  0  0  0  0  0  0  0  0
    0.3943   -1.2135    0.0000 S   0  0  0  0  0  0  0  0  0  0  0  0
   -1.0323   -0.7500    0.0000 C   0  0  0  0  0  0  0  0  0  0  0  0
   -1.0323    0.7500    0.0000 N   0  0  0  0  0  0  0  0  0  0  0  0
    2.2844    3.1036    0.0000 C   0  0  0  0  0  0  0  0  0  0  0  0
    2.2844    4.6036    0.0000 N   0  0  0  0  0  0  0  0  0  0  0  0
    0.8578    5.0672    0.0000 C   0  0  0  0  0  0  0  0  0  0  0  0
   -0.0239    3.8536    0.0000 S   0  0  0  0  0  0  0  0  0  0  0  0
    0.8578    2.6401    0.0000 C   0  0  0  0  0  0  0  0  0  0  0  0
   -0.4881    6.5709    0.0000 O   0  0  0  0  0  0  0  0  0  0  0  0
    0.3943    6.4937    0.0000 C   0  0  0  0  0  0  0  0  0  0  0  0
    1.3980    7.6085    0.0000 N   0  0  0  0  0  0  0  0  0  0  0  0
    2.4017    9.3469    0.0000 N   0  0  0  0  0  0  0  0  0  0  0  0
    2.5585   10.8387    0.0000 C   0  0  0  0  0  0  0  0  0  0  0  0
    1.1882   11.4488    0.0000 C   0  0  0  0  0  0  0  0  0  0  0  0
    0.1845   10.3341    0.0000 C   0  0  0  0  0  0  0  0  0  0  0  0
    0.9345    9.0350    0.0000 C   0  0  0  0  0  0  0  0  0  0  0  0
   -1.6494    9.3066    0.0000 C   0  0  0  0  0  0  0  0  0  0  0  0
   -0.4358    8.4249    0.0000 C   0  0  0  0  0  0  0  0  0  0  0  0
   -0.6351    7.5619    0.0000 O   0  0  0  0  0  0  0  0  0  0  0  0
    3.5164    8.3432    0.0000 C   0  0  0  0  0  0  0  0  0  0  0  0
    3.4979    2.2220    0.0000 C   0  0  0  0  0  0  0  0  0  0  0  0
  1  2  1  0
  2  3  1  0
  2  4  1  0
  2  5  1  0
  6  7  1  0
  7  8  1  0
  8  6  1  0
  9 10  2  0
 10 11  1  0
 11 12  1  0
 12 13  2  0
 13  9  1  0
 14 15  1  0
 15 16  2  0
 16 17  1  0
 17 18  1  0
 18 14  2  0
 19 20  2  0
 20 21  1  0
 22 23  1  0
 23 24  1  0
 24 25  1  0
 25 26  1  0
 26 22  1  0
 27 28  1  0
 28 29  2  0
  5  6  1  0
  6 12  1  0
  9 18  1  0
 16 20  1  0
 26 21  1  1
 26 28  1  0
 22 30  1  0
 14 31  1  0
M  END

