
     RDKit          2D

 30 33  0  0  0  0  0  0  0  0999 V2000
   -1.5000    2.5981    0.0000 Br  0  0  0  0  0  0  0  0  0  0  0  0
    1.5000    0.0000    0.0000 C   0  0  0  0  0  0  0  0  0  0  0  0
    0.7500   -1.2990    0.0000 C   0  0  0  0  0  0  0  0  0  0  0  0
   -0.7500   -1.2990    0.0000 C   0  0  0  0  0  0  0  0  0  0  0  0
   -1.5000    0.0000    0.0000 C   0  0  0  0  0  0  0  0  0  0  0  0
   -0.7500    1.2990    0.0000 C   0  0  0  0  0  0  0  0  0  0  0  0
    0.7500    1.2990    0.0000 C   0  0  0  0  0  0  0  0  0  0  0  0
    3.7500    3.8971    0.0000 N   0  0  0  0  0  0  0  0  0  0  0  0
    3.0000    5.1962    0.0000 C   0  0  0  0  0  0  0  0  0  0  0  0
    1.5000    5.1962    0.0000 C   0  0  0  0  0  0  0  0  0  0  0  0
    0.7500    3.8971    0.0000 C   0  0  0  0  0  0  0  0  0  0  0  0
    1.5000    2.5981    0.0000 C   0  0  0  0  0  0  0  0  0  0  0  0
    3.0000    2.5981    0.0000 C   0  0  0  0  0  0  0  0  0  0  0  0
    7.5583    4.6471    0.0000 C   0  0  0  0  0  0  0  0  0  0  0  0
    7.5583    3.1471    0.0000 C   0  0  0  0  0  0  0  0  0  0  0  0
    6.1317    2.6836    0.0000 N   0  0  0  0  0  0  0  0  0  0  0  0
    5.2500    3.8971    0.0000 N   0  0  0  0  0  0  0  0  0  0  0  0
    6.1317    5.1106    0.0000 C   0  0  0  0  0  0  0  0  0  0  0  0
    9.8285    7.9023    0.0000 C   0  0  0  0  0  0  0  0  0  0  0  0
   11.1988    7.2921    0.0000 C   0  0  0  0  0  0  0  0  0  0  0  0
   11.3556    5.8004    0.0000 C   0  0  0  0  0  0  0  0  0  0  0  0
   10.1421    4.9187    0.0000 C   0  0  0  0  0  0  0  0  0  0  0  0
    8.7718    5.5288    0.0000 C   0  0  0  0  0  0  0  0  0  0  0  0
    8.6150    7.0206    0.0000 C   0  0  0  0  0  0  0  0  0  0  0  0
   10.4557    1.9351    0.0000 F   0  0  0  0  0  0  0  0  0  0  0  0
   10.2989    3.4269    0.0000 C   0  0  0  0  0  0  0  0  0  0  0  0
   11.7907    3.5837    0.0000 F   0  0  0  0  0  0  0  0  0  0  0  0
    8.8071    3.2701    0.0000 F   0  0  0  0  0  0  0  0  0  0  0  0
    9.6717    9.3940    0.0000 Br  0  0  0  0  0  0  0  0  0  0  0  0
    3.0000    0.0000    0.0000 N   0  0  0  0  0  0  0  0  0  0  0  0
  2  3  2  0
  3  4  1  0
  4  5  2  0
  5  6  1  0
  6  7  2  0
  7  2  1  0
  8  9  1  0
  9 10  1  0
 10 11  1  0
 11 12  1  0
 12 13  1  0
 13  8  1  0
 14 15  1  0
 15 16  2  0
 16 17  1  0
 17 18  1  0
 18 14  2  0
 19 20  2  0
 20 21  1  0
 21 22  2  0
 22 23  1  0
 23 24  2  0
 24 19  1  0
 25 26  1  0
 26 27  1  0
 26 28  1  0
  1  6  1  0
 12  7  1  1
  8 17  1  0
 14 23  1  0
 22 26  1  0
 19 29  1  0
  2 30  1  0
M  END

