
     RDKit          2D

 38 43  0  0  0  0  0  0  0  0999 V2000
    1.5000    2.5981    0.0000 Cl  0  0  0  0  0  0  0  0  0  0  0  0
    1.5000    0.0000    0.0000 C   0  0  0  0  0  0  0  0  0  0  0  0
    0.7500   -1.2990    0.0000 N   0  0  0  0  0  0  0  0  0  0  0  0
   -0.7500   -1.2990    0.0000 C   0  0  0  0  0  0  0  0  0  0  0  0
   -1.5000    0.0000    0.0000 N   0  0  0  0  0  0  0  0  0  0  0  0
   -0.7500    1.2990    0.0000 C   0  0  0  0  0  0  0  0  0  0  0  0
    0.7500    1.2990    0.0000 C   0  0  0  0  0  0  0  0  0  0  0  0
   -3.0000    5.1962    0.0000 N   0  0  0  0  0  0  0  0  0  0  0  0
   -3.7500    3.8971    0.0000 C   0  0  0  0  0  0  0  0  0  0  0  0
   -3.0000    2.5981    0.0000 C   0  0  0  0  0  0  0  0  0  0  0  0
   -1.5000    2.5981    0.0000 C   0  0  0  0  0  0  0  0  0  0  0  0
   -0.7500    3.8971    0.0000 C   0  0  0  0  0  0  0  0  0  0  0  0
   -1.5000    5.1962    0.0000 C   0  0  0  0  0  0  0  0  0  0  0  0
   -5.2418    6.6520    0.0000 C   0  0  0  0  0  0  0  0  0  0  0  0
   -5.5537    8.1192    0.0000 N   0  0  0  0  0  0  0  0  0  0  0  0
   -4.2546    8.8692    0.0000 C   0  0  0  0  0  0  0  0  0  0  0  0
   -3.1399    7.8655    0.0000 C   0  0  0  0  0  0  0  0  0  0  0  0
   -3.7500    6.4952    0.0000 N   0  0  0  0  0  0  0  0  0  0  0  0
   -4.7079   11.7313    0.0000 C   0  0  0  0  0  0  0  0  0  0  0  0
   -3.2161   11.5745    0.0000 C   0  0  0  0  0  0  0  0  0  0  0  0
   -4.0978   10.3610    0.0000 C   0  0  0  0  0  0  0  0  0  0  0  0
   -5.9215   12.6130    0.0000 C   0  0  0  0  0  0  0  0  0  0  0  0
   -6.1561   14.0945    0.0000 C   0  0  0  0  0  0  0  0  0  0  0  0
   -7.6376   13.8599    0.0000 C   0  0  0  0  0  0  0  0  0  0  0  0
   -7.4030   12.3783    0.0000 N   0  0  0  0  0  0  0  0  0  0  0  0
   -6.7856    2.9960    0.0000 C   0  0  0  0  0  0  0  0  0  0  0  0
   -8.2529    3.3078    0.0000 C   0  0  0  0  0  0  0  0  0  0  0  0
   -8.7164    4.7344    0.0000 C   0  0  0  0  0  0  0  0  0  0  0  0
   -7.7127    5.8491    0.0000 C   0  0  0  0  0  0  0  0  0  0  0  0
   -6.2455    5.5373    0.0000 C   0  0  0  0  0  0  0  0  0  0  0  0
   -5.7820    4.1107    0.0000 C   0  0  0  0  0  0  0  0  0  0  0  0
  -11.1107    7.8995    0.0000 F   0  0  0  0  0  0  0  0  0  0  0  0
   -9.6434    7.5876    0.0000 C   0  0  0  0  0  0  0  0  0  0  0  0
   -9.3316    9.0548    0.0000 F   0  0  0  0  0  0  0  0  0  0  0  0
   -9.9553    6.1204    0.0000 F   0  0  0  0  0  0  0  0  0  0  0  0
   -8.1762    7.2757    0.0000 O   0  0  0  0  0  0  0  0  0  0  0  0
   -6.3221    1.5694    0.0000 F   0  0  0  0  0  0  0  0  0  0  0  0
    3.0000    0.0000    0.0000 N   0  0  0  0  0  0  0  0  0  0  0  0
  2  3  2  0
  3  4  1  0
  4  5  2  0
  5  6  1  0
  6  7  2  0
  7  2  1  0
  8  9  1  0
  9 10  1  0
 10 11  1  0
 11 12  1  0
 12 13  1  0
 13  8  1  0
 14 15  2  0
 15 16  1  0
 16 17  2  0
 17 18  1  0
 18 14  1  0
 19 20  1  0
 20 21  1  0
 21 19  1  0
 22 23  1  0
 23 24  1  0
 24 25  1  0
 25 22  1  0
 26 27  2  0
 27 28  1  0
 28 29  2  0
 29 30  1  0
 30 31  2  0
 31 26  1  0
 32 33  1  0
 33 34  1  0
 33 35  1  0
 33 36  1  0
  1  7  1  0
  6 11  1  0
  8 18  1  0
 21 16  1  1
 19 22  1  1
 14 30  1  0
 29 36  1  0
 26 37  1  0
  2 38  1  0
M  END

