
     RDKit          2D

 33 36  0  0  0  0  0  0  0  0999 V2000
   -9.6192   -6.4463    0.0000 C   0  0  0  0  0  0  0  0  0  0  0  0
   -8.3202   -5.6963    0.0000 O   0  0  0  0  0  0  0  0  0  0  0  0
   -8.3202   -1.1963    0.0000 C   0  0  0  0  0  0  0  0  0  0  0  0
   -9.6192   -1.9463    0.0000 C   0  0  0  0  0  0  0  0  0  0  0  0
   -9.6192   -3.4463    0.0000 C   0  0  0  0  0  0  0  0  0  0  0  0
   -8.3202   -4.1963    0.0000 C   0  0  0  0  0  0  0  0  0  0  0  0
   -7.0211   -3.4463    0.0000 C   0  0  0  0  0  0  0  0  0  0  0  0
   -7.0211   -1.9463    0.0000 C   0  0  0  0  0  0  0  0  0  0  0  0
  -10.9182    1.8037    0.0000 C   0  0  0  0  0  0  0  0  0  0  0  0
   -9.6192    2.5537    0.0000 C   0  0  0  0  0  0  0  0  0  0  0  0
   -8.3202    1.8037    0.0000 N   0  0  0  0  0  0  0  0  0  0  0  0
   -8.3202    0.3037    0.0000 S   0  0  0  0  0  0  0  0  0  0  0  0
   -6.8202    0.3037    0.0000 O   0  0  0  0  0  0  0  0  0  0  0  0
   -9.8202    0.3037    0.0000 O   0  0  0  0  0  0  0  0  0  0  0  0
   -4.4231    2.5537    0.0000 C   0  0  0  0  0  0  0  0  0  0  0  0
   -4.4231    4.0537    0.0000 N   0  0  0  0  0  0  0  0  0  0  0  0
   -5.7221    4.8037    0.0000 C   0  0  0  0  0  0  0  0  0  0  0  0
   -7.0211    4.0537    0.0000 C   0  0  0  0  0  0  0  0  0  0  0  0
   -7.0211    2.5537    0.0000 C   0  0  0  0  0  0  0  0  0  0  0  0
   -5.7221    1.8037    0.0000 N   0  0  0  0  0  0  0  0  0  0  0  0
    1.5000    0.0000    0.0000 C   0  0  0  0  0  0  0  0  0  0  0  0
    0.7500   -1.2990    0.0000 C   0  0  0  0  0  0  0  0  0  0  0  0
   -0.7500   -1.2990    0.0000 C   0  0  0  0  0  0  0  0  0  0  0  0
   -1.5000    0.0000    0.0000 C   0  0  0  0  0  0  0  0  0  0  0  0
   -2.9672    0.3119    0.0000 N   0  0  0  0  0  0  0  0  0  0  0  0
   -3.1240    1.8037    0.0000 C   0  0  0  0  0  0  0  0  0  0  0  0
   -1.7537    2.4138    0.0000 S   0  0  0  0  0  0  0  0  0  0  0  0
   -0.7500    1.2990    0.0000 C   0  0  0  0  0  0  0  0  0  0  0  0
    0.7500    1.2990    0.0000 C   0  0  0  0  0  0  0  0  0  0  0  0
    5.2500   -1.2990    0.0000 C   0  0  0  0  0  0  0  0  0  0  0  0
    3.7500   -1.2990    0.0000 C   0  0  0  0  0  0  0  0  0  0  0  0
    3.0000   -2.5981    0.0000 O   0  0  0  0  0  0  0  0  0  0  0  0
    3.0000    0.0000    0.0000 N   0  0  0  0  0  0  0  0  0  0  0  0
  1  2  1  0
  3  4  2  0
  4  5  1  0
  5  6  2  0
  6  7  1  0
  7  8  2  0
  8  3  1  0
  9 10  1  0
 10 11  1  0
 11 12  1  0
 12 13  2  0
 12 14  2  0
 15 16  2  0
 16 17  1  0
 17 18  2  0
 18 19  1  0
 19 20  2  0
 20 15  1  0
 21 22  2  0
 22 23  1  0
 23 24  2  0
 24 25  1  0
 25 26  2  0
 26 27  1  0
 27 28  1  0
 28 29  2  0
 29 21  1  0
 28 24  1  0
 30 31  1  0
 31 32  2  0
 31 33  1  0
  2  6  1  0
  3 12  1  0
 11 19  1  0
 15 26  1  0
 21 33  1  0
M  ISO  1   1  11
M  END

