
     RDKit          2D

 34 38  0  0  0  0  0  0  0  0999 V2000
   -9.1493   -2.5723    0.0000 C   0  0  0  0  0  0  0  0  0  0  0  0
   -7.7227   -2.1088    0.0000 C   0  0  0  0  0  0  0  0  0  0  0  0
   -6.2961   -1.6453    0.0000 C   0  0  0  0  0  0  0  0  0  0  0  0
   -5.1814   -2.6490    0.0000 N   0  0  0  0  0  0  0  0  0  0  0  0
   -3.7548   -2.1855    0.0000 C   0  0  0  0  0  0  0  0  0  0  0  0
   -3.4430   -0.7182    0.0000 C   0  0  0  0  0  0  0  0  0  0  0  0
   -4.5577    0.2855    0.0000 C   0  0  0  0  0  0  0  0  0  0  0  0
   -5.9843   -0.1781    0.0000 C   0  0  0  0  0  0  0  0  0  0  0  0
   -2.0164   -0.2547    0.0000 C   0  0  0  0  0  0  0  0  0  0  0  0
   -1.5528    1.1719    0.0000 C   0  0  0  0  0  0  0  0  0  0  0  0
   -0.0528    1.1719    0.0000 O   0  0  0  0  0  0  0  0  0  0  0  0
    0.4107   -0.2547    0.0000 C   0  0  0  0  0  0  0  0  0  0  0  0
    1.7810   -0.8648    0.0000 C   0  0  0  0  0  0  0  0  0  0  0  0
    1.9378   -2.3566    0.0000 C   0  0  0  0  0  0  0  0  0  0  0  0
    0.7243   -3.2383    0.0000 C   0  0  0  0  0  0  0  0  0  0  0  0
    0.8811   -4.7301    0.0000 F   0  0  0  0  0  0  0  0  0  0  0  0
   -0.6461   -2.6282    0.0000 C   0  0  0  0  0  0  0  0  0  0  0  0
   -0.8028   -1.1364    0.0000 C   0  0  0  0  0  0  0  0  0  0  0  0
   -5.4933   -4.1162    0.0000 C   0  0  0  0  0  0  0  0  0  0  0  0
   -6.9199   -4.5797    0.0000 C   0  0  0  0  0  0  0  0  0  0  0  0
   -7.2317   -6.0469    0.0000 C   0  0  0  0  0  0  0  0  0  0  0  0
   -8.6583   -6.5105    0.0000 C   0  0  0  0  0  0  0  0  0  0  0  0
   -9.7730   -5.5068    0.0000 N   0  0  0  0  0  0  0  0  0  0  0  0
  -11.1996   -5.9703    0.0000 C   0  0  0  0  0  0  0  0  0  0  0  0
  -11.5115   -7.4375    0.0000 C   0  0  0  0  0  0  0  0  0  0  0  0
  -12.8105   -8.1875    0.0000 N   0  0  0  0  0  0  0  0  0  0  0  0
  -12.4987   -9.6547    0.0000 N   0  0  0  0  0  0  0  0  0  0  0  0
  -11.0069   -9.8115    0.0000 C   0  0  0  0  0  0  0  0  0  0  0  0
  -10.2569  -11.1106    0.0000 C   0  0  0  0  0  0  0  0  0  0  0  0
  -10.3968   -8.4412    0.0000 C   0  0  0  0  0  0  0  0  0  0  0  0
   -8.9702   -7.9777    0.0000 C   0  0  0  0  0  0  0  0  0  0  0  0
   -6.1170   -7.0506    0.0000 C   0  0  0  0  0  0  0  0  0  0  0  0
   -4.6904   -6.5871    0.0000 N   0  0  0  0  0  0  0  0  0  0  0  0
   -4.3786   -5.1199    0.0000 C   0  0  0  0  0  0  0  0  0  0  0  0
  1  2  3  0
  2  3  1  0
  3  4  1  0
  4  5  1  0
  5  6  2  3
  6  7  1  0
  7  8  1  0
  6  9  1  0
  9 10  2  0
 10 11  1  0
 11 12  1  0
 12 13  2  0
 13 14  1  0
 14 15  2  0
 15 16  1  0
 15 17  1  0
 17 18  2  0
  4 19  1  0
 19 20  2  0
 20 21  1  0
 21 22  1  0
 22 23  2  0
 23 24  1  0
 24 25  2  0
 25 26  1  0
 26 27  1  0
 27 28  2  0
 28 29  1  0
 28 30  1  0
 30 31  2  0
 21 32  2  0
 32 33  1  0
 33 34  2  0
 18  9  1  0
 34 19  1  0
 18 12  1  0
 31 22  1  0
 30 25  1  0
M  ISO  1  16  18
M  END

