
     RDKit          2D

 30 34  0  0  0  0  0  0  0  0999 V2000
   -2.9499    4.2246    0.0000 N   0  0  0  0  0  0  0  0  0  0  0  0
   -1.8351    3.2209    0.0000 C   0  0  0  0  0  0  0  0  0  0  0  0
   -0.4086    3.6844    0.0000 C   0  0  0  0  0  0  0  0  0  0  0  0
    0.7062    2.6807    0.0000 C   0  0  0  0  0  0  0  0  0  0  0  0
    0.3943    1.2135    0.0000 C   0  0  0  0  0  0  0  0  0  0  0  0
    1.2760    0.0000    0.0000 N   0  0  0  0  0  0  0  0  0  0  0  0
    0.3943   -1.2135    0.0000 C   0  0  0  0  0  0  0  0  0  0  0  0
   -1.0323   -0.7500    0.0000 C   0  0  0  0  0  0  0  0  0  0  0  0
   -1.0323    0.7500    0.0000 C   0  0  0  0  0  0  0  0  0  0  0  0
   -2.1470    1.7537    0.0000 C   0  0  0  0  0  0  0  0  0  0  0  0
   -3.5736    1.2902    0.0000 C   0  0  0  0  0  0  0  0  0  0  0  0
   -4.6883    2.2939    0.0000 C   0  0  0  0  0  0  0  0  0  0  0  0
   -6.1149    1.8303    0.0000 N   0  0  0  0  0  0  0  0  0  0  0  0
   -6.4268    0.3631    0.0000 C   0  0  0  0  0  0  0  0  0  0  0  0
   -5.3120   -0.6406    0.0000 C   0  0  0  0  0  0  0  0  0  0  0  0
   -5.6239   -2.1078    0.0000 O   0  0  0  0  0  0  0  0  0  0  0  0
   -7.0505   -2.5713    0.0000 C   0  0  0  0  0  0  0  0  0  0  0  0
   -7.3624   -4.0385    0.0000 C   0  0  0  0  0  0  0  0  0  0  0  0
   -6.2476   -5.0422    0.0000 N   0  0  0  0  0  0  0  0  0  0  0  0
   -8.7889   -4.5021    0.0000 C   0  0  0  0  0  0  0  0  0  0  0  0
   -9.1008   -5.9693    0.0000 C   0  0  0  0  0  0  0  0  0  0  0  0
   -7.9861   -6.9730    0.0000 C   0  0  0  0  0  0  0  0  0  0  0  0
   -8.2980   -8.4402    0.0000 C   0  0  0  0  0  0  0  0  0  0  0  0
   -9.7245   -8.9037    0.0000 C   0  0  0  0  0  0  0  0  0  0  0  0
  -10.8393   -7.9000    0.0000 C   0  0  0  0  0  0  0  0  0  0  0  0
  -10.5274   -6.4328    0.0000 C   0  0  0  0  0  0  0  0  0  0  0  0
  -11.8264   -5.6828    0.0000 N   0  0  0  0  0  0  0  0  0  0  0  0
  -12.9412   -6.6865    0.0000 C   0  0  0  0  0  0  0  0  0  0  0  0
  -12.3310   -8.0568    0.0000 C   0  0  0  0  0  0  0  0  0  0  0  0
   -3.8855   -0.1771    0.0000 C   0  0  0  0  0  0  0  0  0  0  0  0
  1  2  1  0
  2  3  2  0
  3  4  1  0
  4  5  2  0
  5  6  1  0
  6  7  1  0
  7  8  2  0
  8  9  1  0
  9 10  2  0
 10 11  1  0
 11 12  2  0
 12 13  1  0
 13 14  2  0
 14 15  1  0
 15 16  1  0
 16 17  1  0
 17 18  1  0
 18 19  1  1
 18 20  1  0
 20 21  1  0
 21 22  2  0
 22 23  1  0
 23 24  2  0
 24 25  1  0
 25 26  2  0
 26 27  1  0
 27 28  1  0
 28 29  2  0
 15 30  2  0
 10  2  1  0
 30 11  1  0
  9  5  1  0
 26 21  1  0
 29 25  1  0
M  END

