
     RDKit          2D

 31 34  0  0  0  0  0  0  0  0999 V2000
   -0.7500   -3.8971    0.0000 C   0  0  0  0  0  0  0  0  0  0  0  0
    0.7500   -3.8971    0.0000 C   0  0  0  0  0  0  0  0  0  0  0  0
    1.5000   -2.5981    0.0000 C   0  0  0  0  0  0  0  0  0  0  0  0
    0.7500   -1.2990    0.0000 C   0  0  0  0  0  0  0  0  0  0  0  0
    1.5000    0.0000    0.0000 N   0  0  0  0  0  0  0  0  0  0  0  0
    0.7500    1.2990    0.0000 C   0  0  0  0  0  0  0  0  0  0  0  0
   -0.7500    1.2990    0.0000 N   0  0  0  0  0  0  0  0  0  0  0  0
   -1.5000    0.0000    0.0000 C   0  0  0  0  0  0  0  0  0  0  0  0
   -0.7500   -1.2990    0.0000 C   0  0  0  0  0  0  0  0  0  0  0  0
   -1.5000   -2.5981    0.0000 C   0  0  0  0  0  0  0  0  0  0  0  0
   -2.0046   -7.5702    0.0000 C   0  0  0  0  0  0  0  0  0  0  0  0
   -3.3037   -6.8202    0.0000 N   0  0  0  0  0  0  0  0  0  0  0  0
   -2.9918   -5.3529    0.0000 C   0  0  0  0  0  0  0  0  0  0  0  0
   -1.5000   -5.1962    0.0000 N   0  0  0  0  0  0  0  0  0  0  0  0
   -0.8899   -6.5665    0.0000 N   0  0  0  0  0  0  0  0  0  0  0  0
   -6.9299   -4.8620    0.0000 N   0  0  0  0  0  0  0  0  0  0  0  0
   -5.4627   -4.5501    0.0000 S   0  0  0  0  0  0  0  0  0  0  0  0
   -5.1508   -6.0173    0.0000 O   0  0  0  0  0  0  0  0  0  0  0  0
   -5.7746   -3.0829    0.0000 O   0  0  0  0  0  0  0  0  0  0  0  0
   -3.9955   -4.2382    0.0000 N   0  0  0  0  0  0  0  0  0  0  0  0
    1.0496  -11.7739    0.0000 O   0  0  0  0  0  0  0  0  0  0  0  0
   -0.3207  -11.1638    0.0000 C   0  0  0  0  0  0  0  0  0  0  0  0
   -1.5342  -12.0455    0.0000 C   0  0  0  0  0  0  0  0  0  0  0  0
   -2.9046  -11.4354    0.0000 C   0  0  0  0  0  0  0  0  0  0  0  0
   -3.0613   -9.9436    0.0000 N   0  0  0  0  0  0  0  0  0  0  0  0
   -1.8478   -9.0619    0.0000 C   0  0  0  0  0  0  0  0  0  0  0  0
   -0.4775   -9.6721    0.0000 N   0  0  0  0  0  0  0  0  0  0  0  0
   -6.7019  -12.5887    0.0000 O   0  0  0  0  0  0  0  0  0  0  0  0
   -5.4884  -11.7070    0.0000 C   0  0  0  0  0  0  0  0  0  0  0  0
   -5.6452  -10.2152    0.0000 O   0  0  0  0  0  0  0  0  0  0  0  0
   -4.1181  -12.3171    0.0000 C   0  0  0  0  0  0  0  0  0  0  0  0
  1  2  2  0
  2  3  1  0
  3  4  2  0
  4  5  1  0
  5  6  2  0
  6  7  1  0
  7  8  2  0
  8  9  1  0
  9 10  2  0
 10  1  1  0
  9  4  1  0
 11 12  1  0
 12 13  2  0
 13 14  1  0
 14 15  1  0
 15 11  2  0
 16 17  1  0
 17 18  2  0
 17 19  2  0
 17 20  1  0
 21 22  2  0
 22 23  1  0
 23 24  1  0
 24 25  1  0
 25 26  2  0
 26 27  1  0
 27 22  1  0
 28 29  2  0
 29 30  1  0
 29 31  1  0
  1 14  1  0
 13 20  1  0
 11 26  1  0
 24 31  1  6
M  END

