
     RDKit          2D

 29 33  0  0  0  0  0  0  0  0999 V2000
    2.7760    0.0000    0.0000 C   0  0  0  0  0  0  0  0  0  0  0  0
    1.2760    0.0000    0.0000 N   0  0  0  0  0  0  0  0  0  0  0  0
    0.3943    1.2135    0.0000 C   0  0  0  0  0  0  0  0  0  0  0  0
   -1.0323    0.7500    0.0000 N   0  0  0  0  0  0  0  0  0  0  0  0
   -1.0323   -0.7500    0.0000 C   0  0  0  0  0  0  0  0  0  0  0  0
   -2.1470   -1.7537    0.0000 C   0  0  0  0  0  0  0  0  0  0  0  0
   -3.5736   -1.2902    0.0000 C   0  0  0  0  0  0  0  0  0  0  0  0
   -3.8855    0.1771    0.0000 C   0  0  0  0  0  0  0  0  0  0  0  0
   -5.3120    0.6406    0.0000 C   0  0  0  0  0  0  0  0  0  0  0  0
   -5.6239    2.1078    0.0000 C   0  0  0  0  0  0  0  0  0  0  0  0
   -7.0505    2.5713    0.0000 O   0  0  0  0  0  0  0  0  0  0  0  0
   -4.5092    3.1115    0.0000 N   0  0  0  0  0  0  0  0  0  0  0  0
   -3.0826    2.6480    0.0000 C   0  0  0  0  0  0  0  0  0  0  0  0
   -1.9679    3.6517    0.0000 N   0  0  0  0  0  0  0  0  0  0  0  0
   -2.2798    5.1189    0.0000 C   0  0  0  0  0  0  0  0  0  0  0  0
   -1.1650    6.1226    0.0000 C   0  0  0  0  0  0  0  0  0  0  0  0
    0.2615    5.6591    0.0000 O   0  0  0  0  0  0  0  0  0  0  0  0
    0.5734    4.1918    0.0000 C   0  0  0  0  0  0  0  0  0  0  0  0
   -0.5413    3.1881    0.0000 C   0  0  0  0  0  0  0  0  0  0  0  0
   -2.7707    1.1807    0.0000 N   0  0  0  0  0  0  0  0  0  0  0  0
   -1.8351   -3.2209    0.0000 C   0  0  0  0  0  0  0  0  0  0  0  0
   -2.9499   -4.2246    0.0000 N   0  0  0  0  0  0  0  0  0  0  0  0
   -2.7931   -5.7164    0.0000 C   0  0  0  0  0  0  0  0  0  0  0  0
   -4.1634   -6.3265    0.0000 C   0  0  0  0  0  0  0  0  0  0  0  0
   -5.1671   -5.2118    0.0000 C   0  0  0  0  0  0  0  0  0  0  0  0
   -4.4171   -3.9127    0.0000 C   0  0  0  0  0  0  0  0  0  0  0  0
   -0.4086   -3.6844    0.0000 C   0  0  0  0  0  0  0  0  0  0  0  0
    0.7062   -2.6807    0.0000 C   0  0  0  0  0  0  0  0  0  0  0  0
    0.3943   -1.2135    0.0000 C   0  0  0  0  0  0  0  0  0  0  0  0
  1  2  1  0
  2  3  1  0
  3  4  2  0
  4  5  1  0
  5  6  2  0
  6  7  1  0
  7  8  1  0
  8  9  2  0
  9 10  1  0
 10 11  2  0
 10 12  1  0
 12 13  1  0
 13 14  1  0
 14 15  1  0
 15 16  1  0
 16 17  1  0
 17 18  1  0
 18 19  1  0
 13 20  2  0
  6 21  1  0
 21 22  1  0
 22 23  1  0
 23 24  2  0
 24 25  1  0
 25 26  2  0
 21 27  2  0
 27 28  1  0
 28 29  2  0
 29  2  1  0
 29  5  1  0
 20  8  1  0
 26 22  1  0
 19 14  1  0
M  END

