
     RDKit          2D

 34 38  0  0  0  0  0  0  0  0999 V2000
   -5.0990    6.8667    0.0000 C   0  0  0  0  0  0  0  0  0  0  0  0
   -6.2137    5.8630    0.0000 C   0  0  0  0  0  0  0  0  0  0  0  0
   -7.6403    6.3265    0.0000 C   0  0  0  0  0  0  0  0  0  0  0  0
   -5.9018    4.3958    0.0000 C   0  0  0  0  0  0  0  0  0  0  0  0
   -6.9055    3.2810    0.0000 C   0  0  0  0  0  0  0  0  0  0  0  0
   -6.1555    1.9820    0.0000 N   0  0  0  0  0  0  0  0  0  0  0  0
   -4.6883    2.2939    0.0000 C   0  0  0  0  0  0  0  0  0  0  0  0
   -3.5736    1.2902    0.0000 N   0  0  0  0  0  0  0  0  0  0  0  0
   -2.1470    1.7537    0.0000 C   0  0  0  0  0  0  0  0  0  0  0  0
   -1.8351    3.2209    0.0000 N   0  0  0  0  0  0  0  0  0  0  0  0
   -0.4086    3.6844    0.0000 C   0  0  0  0  0  0  0  0  0  0  0  0
   -0.0967    5.1517    0.0000 N   0  0  0  0  0  0  0  0  0  0  0  0
   -1.1004    6.2664    0.0000 C   0  0  0  0  0  0  0  0  0  0  0  0
   -0.3504    7.5654    0.0000 C   0  0  0  0  0  0  0  0  0  0  0  0
    1.1168    7.2536    0.0000 C   0  0  0  0  0  0  0  0  0  0  0  0
    1.2736    5.7618    0.0000 C   0  0  0  0  0  0  0  0  0  0  0  0
    2.7409    6.0736    0.0000 C   0  0  0  0  0  0  0  0  0  0  0  0
    1.7372    4.3352    0.0000 N   0  0  0  0  0  0  0  0  0  0  0  0
    3.2044    4.0233    0.0000 C   0  0  0  0  0  0  0  0  0  0  0  0
    4.2081    5.1380    0.0000 O   0  0  0  0  0  0  0  0  0  0  0  0
    3.6679    2.5967    0.0000 C   0  0  0  0  0  0  0  0  0  0  0  0
    2.6642    1.4820    0.0000 C   0  0  0  0  0  0  0  0  0  0  0  0
    3.1277    0.0554    0.0000 C   0  0  0  0  0  0  0  0  0  0  0  0
    4.5950   -0.2564    0.0000 C   0  0  0  0  0  0  0  0  0  0  0  0
    5.0585   -1.6830    0.0000 F   0  0  0  0  0  0  0  0  0  0  0  0
    5.5987    0.8583    0.0000 C   0  0  0  0  0  0  0  0  0  0  0  0
    5.1351    2.2849    0.0000 N   0  0  0  0  0  0  0  0  0  0  0  0
    0.7062    2.6807    0.0000 N   0  0  0  0  0  0  0  0  0  0  0  0
    0.3943    1.2135    0.0000 N   0  0  0  0  0  0  0  0  0  0  0  0
    1.2760    0.0000    0.0000 C   0  0  0  0  0  0  0  0  0  0  0  0
    0.3943   -1.2135    0.0000 C   0  0  0  0  0  0  0  0  0  0  0  0
   -1.0323   -0.7500    0.0000 C   0  0  0  0  0  0  0  0  0  0  0  0
   -1.0323    0.7500    0.0000 C   0  0  0  0  0  0  0  0  0  0  0  0
   -4.5315    3.7856    0.0000 N   0  0  0  0  0  0  0  0  0  0  0  0
  1  2  1  0
  2  3  1  0
  2  4  1  0
  4  5  2  0
  5  6  1  0
  6  7  1  0
  7  8  1  0
  8  9  1  0
  9 10  2  0
 10 11  1  0
 11 12  1  0
 12 13  1  0
 13 14  1  0
 14 15  1  0
 15 16  1  0
 16 17  1  1
 16 18  1  0
 18 19  1  0
 19 20  2  0
 19 21  1  0
 21 22  2  0
 22 23  1  0
 23 24  2  0
 24 25  1  0
 24 26  1  0
 26 27  2  0
 11 28  2  0
 28 29  1  0
 29 30  1  0
 30 31  2  0
 31 32  1  0
 32 33  2  0
  7 34  2  0
 34  4  1  0
 33  9  1  0
 16 12  1  0
 27 21  1  0
 33 29  1  0
M  END

