
     RDKit          2D

 38 42  0  0  0  0  0  0  0  0999 V2000
    3.0000    0.0000    0.0000 C   0  0  0  0  0  0  0  0  0  0  0  0
    1.5000    0.0000    0.0000 C   0  0  0  0  0  0  0  0  0  0  0  0
    0.7500   -1.2990    0.0000 C   0  0  0  0  0  0  0  0  0  0  0  0
   -0.7500   -1.2990    0.0000 O   0  0  0  0  0  0  0  0  0  0  0  0
   -1.5000    0.0000    0.0000 C   0  0  0  0  0  0  0  0  0  0  0  0
   -0.7500    1.2990    0.0000 C   0  0  0  0  0  0  0  0  0  0  0  0
    0.7500    1.2990    0.0000 N   0  0  0  0  0  0  0  0  0  0  0  0
    1.5000    2.5981    0.0000 C   0  0  0  0  0  0  0  0  0  0  0  0
    0.8899    3.9684    0.0000 N   0  0  0  0  0  0  0  0  0  0  0  0
    2.0046    4.9721    0.0000 C   0  0  0  0  0  0  0  0  0  0  0  0
    1.8478    6.4639    0.0000 C   0  0  0  0  0  0  0  0  0  0  0  0
    0.3515    6.5685    0.0000 S   0  0  0  0  0  0  0  0  0  0  0  0
    0.2468    5.0722    0.0000 O   0  0  0  0  0  0  0  0  0  0  0  0
    0.4561    8.0649    0.0000 O   0  0  0  0  0  0  0  0  0  0  0  0
   -1.1449    6.6731    0.0000 C   0  0  0  0  0  0  0  0  0  0  0  0
   -1.8024    8.0213    0.0000 C   0  0  0  0  0  0  0  0  0  0  0  0
   -3.2988    8.1260    0.0000 C   0  0  0  0  0  0  0  0  0  0  0  0
   -4.1376    6.8824    0.0000 C   0  0  0  0  0  0  0  0  0  0  0  0
   -3.4800    5.5342    0.0000 C   0  0  0  0  0  0  0  0  0  0  0  0
   -1.9837    5.4296    0.0000 C   0  0  0  0  0  0  0  0  0  0  0  0
    2.2107    7.9193    0.0000 C   0  0  0  0  0  0  0  0  0  0  0  0
    3.2897    6.8773    0.0000 C   0  0  0  0  0  0  0  0  0  0  0  0
    3.3037    4.2221    0.0000 C   0  0  0  0  0  0  0  0  0  0  0  0
    4.6740    4.8322    0.0000 C   0  0  0  0  0  0  0  0  0  0  0  0
    5.8875    3.9505    0.0000 C   0  0  0  0  0  0  0  0  0  0  0  0
    7.2578    4.5606    0.0000 C   0  0  0  0  0  0  0  0  0  0  0  0
    7.4146    6.0524    0.0000 C   0  0  0  0  0  0  0  0  0  0  0  0
    8.7849    6.6625    0.0000 N   0  0  0  0  0  0  0  0  0  0  0  0
    9.9984    5.7808    0.0000 C   0  0  0  0  0  0  0  0  0  0  0  0
    9.8417    4.2890    0.0000 O   0  0  0  0  0  0  0  0  0  0  0  0
   11.3688    6.3909    0.0000 N   0  0  0  0  0  0  0  0  0  0  0  0
   12.5823    5.5093    0.0000 C   0  0  0  0  0  0  0  0  0  0  0  0
   13.9526    6.1194    0.0000 C   0  0  0  0  0  0  0  0  0  0  0  0
   15.1661    5.2377    0.0000 C   0  0  0  0  0  0  0  0  0  0  0  0
   16.5365    5.8478    0.0000 O   0  0  0  0  0  0  0  0  0  0  0  0
    6.2011    6.9341    0.0000 N   0  0  0  0  0  0  0  0  0  0  0  0
    4.8308    6.3240    0.0000 C   0  0  0  0  0  0  0  0  0  0  0  0
    2.9918    2.7549    0.0000 O   0  0  0  0  0  0  0  0  0  0  0  0
  2  1  1  1
  2  3  1  0
  3  4  1  0
  4  5  1  0
  5  6  1  0
  6  7  1  0
  7  8  1  0
  8  9  2  0
  9 10  1  0
 10 11  1  0
 11 12  1  0
 12 13  2  0
 12 14  2  0
 12 15  1  0
 15 16  2  0
 16 17  1  0
 17 18  2  0
 18 19  1  0
 19 20  2  0
 11 21  1  0
 21 22  1  0
 10 23  2  0
 23 24  1  0
 24 25  2  0
 25 26  1  0
 26 27  2  0
 27 28  1  0
 28 29  1  0
 29 30  2  0
 29 31  1  0
 31 32  1  0
 32 33  1  0
 33 34  1  0
 34 35  1  0
 27 36  1  0
 36 37  2  0
 23 38  1  0
  7  2  1  0
 38  8  1  0
 22 11  1  0
 37 24  1  0
 20 15  1  0
M  END

