
     RDKit          2D

 36 40  0  0  0  0  0  0  0  0999 V2000
   -4.6740    4.8322    0.0000 C   0  0  0  0  0  0  0  0  0  0  0  0
   -2.0046    4.9721    0.0000 C   0  0  0  0  0  0  0  0  0  0  0  0
   -0.8899    3.9684    0.0000 N   0  0  0  0  0  0  0  0  0  0  0  0
   -1.5000    2.5981    0.0000 C   0  0  0  0  0  0  0  0  0  0  0  0
   -2.9918    2.7549    0.0000 C   0  0  0  0  0  0  0  0  0  0  0  0
   -3.3037    4.2221    0.0000 N   0  0  0  0  0  0  0  0  0  0  0  0
    1.5000    0.0000    0.0000 C   0  0  0  0  0  0  0  0  0  0  0  0
    0.7500   -1.2990    0.0000 C   0  0  0  0  0  0  0  0  0  0  0  0
   -0.7500   -1.2990    0.0000 C   0  0  0  0  0  0  0  0  0  0  0  0
   -1.5000    0.0000    0.0000 C   0  0  0  0  0  0  0  0  0  0  0  0
   -0.7500    1.2990    0.0000 C   0  0  0  0  0  0  0  0  0  0  0  0
    0.7500    1.2990    0.0000 C   0  0  0  0  0  0  0  0  0  0  0  0
   -4.5000    0.0000    0.0000 F   0  0  0  0  0  0  0  0  0  0  0  0
   -3.0000    0.0000    0.0000 C   0  0  0  0  0  0  0  0  0  0  0  0
   -3.0000    1.5000    0.0000 F   0  0  0  0  0  0  0  0  0  0  0  0
   -3.0000   -1.5000    0.0000 F   0  0  0  0  0  0  0  0  0  0  0  0
    3.0000    0.0000    0.0000 F   0  0  0  0  0  0  0  0  0  0  0  0
   -1.5342    9.4474    0.0000 N   0  0  0  0  0  0  0  0  0  0  0  0
   -2.9046    8.8373    0.0000 C   0  0  0  0  0  0  0  0  0  0  0  0
   -3.0613    7.3456    0.0000 C   0  0  0  0  0  0  0  0  0  0  0  0
   -1.8478    6.4639    0.0000 C   0  0  0  0  0  0  0  0  0  0  0  0
   -0.4775    7.0740    0.0000 C   0  0  0  0  0  0  0  0  0  0  0  0
   -0.3207    8.5658    0.0000 C   0  0  0  0  0  0  0  0  0  0  0  0
   -0.0071   11.5493    0.0000 C   0  0  0  0  0  0  0  0  0  0  0  0
    0.1497   13.0411    0.0000 C   0  0  0  0  0  0  0  0  0  0  0  0
   -1.0639   13.9228    0.0000 N   0  0  0  0  0  0  0  0  0  0  0  0
   -2.4342   13.3127    0.0000 C   0  0  0  0  0  0  0  0  0  0  0  0
   -2.5910   11.8209    0.0000 N   0  0  0  0  0  0  0  0  0  0  0  0
   -1.3774   10.9392    0.0000 C   0  0  0  0  0  0  0  0  0  0  0  0
    1.5200   13.6512    0.0000 N   0  0  0  0  0  0  0  0  0  0  0  0
    2.6330    8.7041    0.0000 C   0  0  0  0  0  0  0  0  0  0  0  0
    3.5147    9.9176    0.0000 C   0  0  0  0  0  0  0  0  0  0  0  0
    2.6330   11.1312    0.0000 C   0  0  0  0  0  0  0  0  0  0  0  0
    1.2064   10.6676    0.0000 C   0  0  0  0  0  0  0  0  0  0  0  0
    1.2064    9.1676    0.0000 S   0  0  0  0  0  0  0  0  0  0  0  0
    3.0965    7.2775    0.0000 C   0  0  0  0  0  0  0  0  0  0  0  0
  2  3  2  0
  3  4  1  0
  4  5  2  0
  5  6  1  0
  6  2  1  0
  7  8  2  0
  8  9  1  0
  9 10  2  0
 10 11  1  0
 11 12  2  0
 12  7  1  0
 13 14  1  0
 14 15  1  0
 14 16  1  0
 18 19  1  0
 19 20  1  0
 20 21  1  0
 21 22  1  0
 22 23  1  0
 23 18  1  0
 24 25  2  0
 25 26  1  0
 26 27  2  0
 27 28  1  0
 28 29  2  0
 29 24  1  0
 31 32  2  0
 32 33  1  0
 33 34  2  0
 34 35  1  0
 35 31  1  0
  1  6  1  0
  4 11  1  0
 10 14  1  0
  7 17  1  0
  2 21  1  0
 18 29  1  0
 25 30  1  0
 24 34  1  0
 31 36  1  0
M  END

