
     RDKit          2D

 26 29  0  0  0  0  0  0  0  0999 V2000
    2.4558   -8.7791    0.0000 N   0  0  0  0  0  0  0  0  0  0  0  0
    1.3411   -7.7755    0.0000 C   0  0  0  0  0  0  0  0  0  0  0  0
    1.6529   -6.3082    0.0000 O   0  0  0  0  0  0  0  0  0  0  0  0
   -0.0855   -8.2390    0.0000 C   0  0  0  0  0  0  0  0  0  0  0  0
   -1.2990   -7.3573    0.0000 C   0  0  0  0  0  0  0  0  0  0  0  0
   -1.2990   -5.8573    0.0000 C   0  0  0  0  0  0  0  0  0  0  0  0
   -2.5981   -5.1073    0.0000 C   0  0  0  0  0  0  0  0  0  0  0  0
   -3.8971   -5.8573    0.0000 O   0  0  0  0  0  0  0  0  0  0  0  0
   -2.5981   -3.6073    0.0000 C   0  0  0  0  0  0  0  0  0  0  0  0
   -3.8116   -2.7256    0.0000 C   0  0  0  0  0  0  0  0  0  0  0  0
   -3.3481   -1.2990    0.0000 C   0  0  0  0  0  0  0  0  0  0  0  0
   -4.0981   -0.0000    0.0000 C   0  0  0  0  0  0  0  0  0  0  0  0
   -3.3481    1.2990    0.0000 C   0  0  0  0  0  0  0  0  0  0  0  0
   -1.8481    1.2990    0.0000 C   0  0  0  0  0  0  0  0  0  0  0  0
   -1.0981    0.0000    0.0000 C   0  0  0  0  0  0  0  0  0  0  0  0
   -1.8481   -1.2990    0.0000 C   0  0  0  0  0  0  0  0  0  0  0  0
   -1.3846   -2.7256    0.0000 N   0  0  0  0  0  0  0  0  0  0  0  0
   -2.5126   -8.2390    0.0000 S   0  0  0  0  0  0  0  0  0  0  0  0
   -2.0490   -9.6656    0.0000 C   0  0  0  0  0  0  0  0  0  0  0  0
   -2.9307  -10.8791    0.0000 N   0  0  0  0  0  0  0  0  0  0  0  0
   -4.4225  -10.7223    0.0000 C   0  0  0  0  0  0  0  0  0  0  0  0
   -5.3042  -11.9358    0.0000 C   0  0  0  0  0  0  0  0  0  0  0  0
   -4.6941  -13.3061    0.0000 O   0  0  0  0  0  0  0  0  0  0  0  0
   -3.2023  -13.4629    0.0000 C   0  0  0  0  0  0  0  0  0  0  0  0
   -2.3206  -12.2494    0.0000 C   0  0  0  0  0  0  0  0  0  0  0  0
   -0.5490   -9.6656    0.0000 N   0  0  0  0  0  0  0  0  0  0  0  0
  1  2  1  0
  2  3  2  0
  2  4  1  0
  4  5  2  0
  5  6  1  0
  6  7  1  0
  7  8  2  0
  7  9  1  0
  9 10  1  0
 10 11  1  0
 11 12  2  0
 12 13  1  0
 13 14  2  0
 14 15  1  0
 15 16  2  0
 16 17  1  0
  5 18  1  0
 18 19  1  0
 19 20  1  0
 20 21  1  0
 21 22  1  0
 22 23  1  0
 23 24  1  0
 24 25  1  0
 19 26  2  0
 26  4  1  0
 17  9  1  0
 25 20  1  0
 16 11  1  0
M  END

