
     RDKit          2D

 36 40  0  0  0  0  0  0  0  0999 V2000
    0.7500   -1.2990    0.0000 N   0  0  0  0  0  0  0  0  0  0  0  0
    1.5000    0.0000    0.0000 C   0  0  0  0  0  0  0  0  0  0  0  0
    0.7500    1.2990    0.0000 C   0  0  0  0  0  0  0  0  0  0  0  0
   -0.7500    1.2990    0.0000 O   0  0  0  0  0  0  0  0  0  0  0  0
   -1.5000    0.0000    0.0000 C   0  0  0  0  0  0  0  0  0  0  0  0
   -0.7500   -1.2990    0.0000 C   0  0  0  0  0  0  0  0  0  0  0  0
    1.5000   -5.1962    0.0000 C   0  0  0  0  0  0  0  0  0  0  0  0
    3.0000   -5.1962    0.0000 C   0  0  0  0  0  0  0  0  0  0  0  0
    3.7500   -3.8971    0.0000 C   0  0  0  0  0  0  0  0  0  0  0  0
    3.0000   -2.5981    0.0000 N   0  0  0  0  0  0  0  0  0  0  0  0
    1.5000   -2.5981    0.0000 C   0  0  0  0  0  0  0  0  0  0  0  0
    0.7500   -3.8971    0.0000 N   0  0  0  0  0  0  0  0  0  0  0  0
    5.2500   -3.8971    0.0000 C   0  0  0  0  0  0  0  0  0  0  0  0
    6.6595   -4.4101    0.0000 C   0  0  0  0  0  0  0  0  0  0  0  0
    5.5105   -5.3743    0.0000 C   0  0  0  0  0  0  0  0  0  0  0  0
    4.0333   -2.1594    0.0000 O   0  0  0  0  0  0  0  0  0  0  0  0
    5.5105   -2.4199    0.0000 S   0  0  0  0  0  0  0  0  0  0  0  0
    6.9877   -2.6804    0.0000 O   0  0  0  0  0  0  0  0  0  0  0  0
    6.2919    2.0117    0.0000 C   0  0  0  0  0  0  0  0  0  0  0  0
    7.4410    1.0476    0.0000 C   0  0  0  0  0  0  0  0  0  0  0  0
    7.1805   -0.4297    0.0000 C   0  0  0  0  0  0  0  0  0  0  0  0
    5.7709   -0.9427    0.0000 C   0  0  0  0  0  0  0  0  0  0  0  0
    4.6219    0.0215    0.0000 C   0  0  0  0  0  0  0  0  0  0  0  0
    4.8824    1.4987    0.0000 C   0  0  0  0  0  0  0  0  0  0  0  0
    6.5524    3.4889    0.0000 F   0  0  0  0  0  0  0  0  0  0  0  0
   -0.7500   -9.0933    0.0000 C   0  0  0  0  0  0  0  0  0  0  0  0
   -1.5000   -7.7942    0.0000 C   0  0  0  0  0  0  0  0  0  0  0  0
   -0.7500   -6.4952    0.0000 C   0  0  0  0  0  0  0  0  0  0  0  0
    0.7500   -6.4952    0.0000 C   0  0  0  0  0  0  0  0  0  0  0  0
    1.5000   -7.7942    0.0000 C   0  0  0  0  0  0  0  0  0  0  0  0
    0.7500   -9.0933    0.0000 N   0  0  0  0  0  0  0  0  0  0  0  0
   -2.2500   -3.8971    0.0000 F   0  0  0  0  0  0  0  0  0  0  0  0
   -1.5000   -5.1962    0.0000 C   0  0  0  0  0  0  0  0  0  0  0  0
   -2.7990   -5.9462    0.0000 F   0  0  0  0  0  0  0  0  0  0  0  0
   -0.2010   -4.4462    0.0000 F   0  0  0  0  0  0  0  0  0  0  0  0
   -1.5000  -10.3923    0.0000 N   0  0  0  0  0  0  0  0  0  0  0  0
  1  2  1  0
  2  3  1  0
  3  4  1  0
  4  5  1  0
  5  6  1  0
  6  1  1  0
  7  8  2  0
  8  9  1  0
  9 10  2  0
 10 11  1  0
 11 12  2  0
 12  7  1  0
 13 14  1  0
 14 15  1  0
 15 13  1  0
 16 17  2  0
 17 18  2  0
 19 20  2  0
 20 21  1  0
 21 22  2  0
 22 23  1  0
 23 24  2  0
 24 19  1  0
 26 27  2  0
 27 28  1  0
 28 29  2  0
 29 30  1  0
 30 31  2  0
 31 26  1  0
 32 33  1  0
 33 34  1  0
 33 35  1  0
  1 11  1  0
  9 13  1  0
 13 17  1  0
 17 22  1  0
 19 25  1  0
  7 29  1  0
 28 33  1  0
 26 36  1  0
M  END

