
     RDKit          2D

 37 42  0  0  0  0  0  0  0  0999 V2000
    2.5081    6.0187    0.0000 N   0  0  0  0  0  0  0  0  0  0  0  0
    3.7661    5.2018    0.0000 C   0  0  0  0  0  0  0  0  0  0  0  0
    4.5830    6.4598    0.0000 C   0  0  0  0  0  0  0  0  0  0  0  0
    3.3250    7.2767    0.0000 C   0  0  0  0  0  0  0  0  0  0  0  0
    0.5773    4.2803    0.0000 N   0  0  0  0  0  0  0  0  0  0  0  0
    1.0409    5.7068    0.0000 C   0  0  0  0  0  0  0  0  0  0  0  0
   -1.5000    2.5981    0.0000 C   0  0  0  0  0  0  0  0  0  0  0  0
   -2.9918    2.7549    0.0000 N   0  0  0  0  0  0  0  0  0  0  0  0
   -3.3037    4.2221    0.0000 C   0  0  0  0  0  0  0  0  0  0  0  0
   -2.0046    4.9721    0.0000 C   0  0  0  0  0  0  0  0  0  0  0  0
   -0.8899    3.9684    0.0000 N   0  0  0  0  0  0  0  0  0  0  0  0
   -6.4776    6.4562    0.0000 C   0  0  0  0  0  0  0  0  0  0  0  0
   -7.0877    5.0859    0.0000 C   0  0  0  0  0  0  0  0  0  0  0  0
   -5.9730    4.0822    0.0000 N   0  0  0  0  0  0  0  0  0  0  0  0
   -4.6740    4.8322    0.0000 C   0  0  0  0  0  0  0  0  0  0  0  0
   -4.9858    6.2994    0.0000 N   0  0  0  0  0  0  0  0  0  0  0  0
   -8.7992    2.4505    0.0000 O   0  0  0  0  0  0  0  0  0  0  0  0
   -7.4288    1.8404    0.0000 C   0  0  0  0  0  0  0  0  0  0  0  0
   -7.1170    0.3732    0.0000 O   0  0  0  0  0  0  0  0  0  0  0  0
   -5.6252    0.2164    0.0000 C   0  0  0  0  0  0  0  0  0  0  0  0
   -5.0151    1.5867    0.0000 C   0  0  0  0  0  0  0  0  0  0  0  0
   -6.1298    2.5904    0.0000 N   0  0  0  0  0  0  0  0  0  0  0  0
   -7.2276    7.7552    0.0000 F   0  0  0  0  0  0  0  0  0  0  0  0
    0.7500   -1.2990    0.0000 N   0  0  0  0  0  0  0  0  0  0  0  0
    1.5000    0.0000    0.0000 C   0  0  0  0  0  0  0  0  0  0  0  0
    0.7500    1.2990    0.0000 C   0  0  0  0  0  0  0  0  0  0  0  0
   -0.7500    1.2990    0.0000 C   0  0  0  0  0  0  0  0  0  0  0  0
   -1.5000    0.0000    0.0000 C   0  0  0  0  0  0  0  0  0  0  0  0
   -0.7500   -1.2990    0.0000 C   0  0  0  0  0  0  0  0  0  0  0  0
    0.8899   -3.9684    0.0000 N   0  0  0  0  0  0  0  0  0  0  0  0
    2.0046   -4.9721    0.0000 N   0  0  0  0  0  0  0  0  0  0  0  0
    3.3037   -4.2221    0.0000 C   0  0  0  0  0  0  0  0  0  0  0  0
    2.9918   -2.7549    0.0000 N   0  0  0  0  0  0  0  0  0  0  0  0
    1.5000   -2.5981    0.0000 C   0  0  0  0  0  0  0  0  0  0  0  0
    4.6740   -4.8322    0.0000 N   0  0  0  0  0  0  0  0  0  0  0  0
   -1.0409   -5.7068    0.0000 C   0  0  0  0  0  0  0  0  0  0  0  0
   -0.5773   -4.2803    0.0000 C   0  0  0  0  0  0  0  0  0  0  0  0
  1  2  1  0
  2  3  1  0
  3  4  1  0
  4  1  1  0
  5  6  1  0
  7  8  2  0
  8  9  1  0
  9 10  2  0
 10 11  1  0
 11  7  1  0
 12 13  2  0
 13 14  1  0
 14 15  1  0
 15 16  2  0
 16 12  1  0
 17 18  2  0
 18 19  1  0
 19 20  1  0
 20 21  1  0
 21 22  1  0
 22 18  1  0
 24 25  1  0
 25 26  1  0
 26 27  1  0
 27 28  1  0
 28 29  1  0
 29 24  1  0
 30 31  1  0
 31 32  2  0
 32 33  1  0
 33 34  2  0
 34 30  1  0
 36 37  1  0
  1  6  1  0
  5 11  1  0
  9 15  1  0
 14 22  1  0
 12 23  1  0
  7 27  1  0
 24 34  1  0
 32 35  1  0
 30 37  1  0
M  ISO  1  23  18
M  END

