
     RDKit          2D

 27 31  0  0  0  0  0  0  0  0999 V2000
   -9.6088    6.1794    0.0000 C   0  0  0  0  0  0  0  0  0  0  0  0
   -8.1170    6.3362    0.0000 C   0  0  0  0  0  0  0  0  0  0  0  0
   -7.5069    7.7065    0.0000 C   0  0  0  0  0  0  0  0  0  0  0  0
   -6.0151    7.8633    0.0000 C   0  0  0  0  0  0  0  0  0  0  0  0
   -5.1335    6.6498    0.0000 C   0  0  0  0  0  0  0  0  0  0  0  0
   -3.6417    6.8066    0.0000 C   0  0  0  0  0  0  0  0  0  0  0  0
   -2.6380    5.6918    0.0000 C   0  0  0  0  0  0  0  0  0  0  0  0
   -2.9499    4.2246    0.0000 N   0  0  0  0  0  0  0  0  0  0  0  0
   -1.8351    3.2209    0.0000 C   0  0  0  0  0  0  0  0  0  0  0  0
   -0.4086    3.6844    0.0000 C   0  0  0  0  0  0  0  0  0  0  0  0
    0.7062    2.6807    0.0000 C   0  0  0  0  0  0  0  0  0  0  0  0
    0.3943    1.2135    0.0000 C   0  0  0  0  0  0  0  0  0  0  0  0
    1.2760    0.0000    0.0000 C   0  0  0  0  0  0  0  0  0  0  0  0
    0.3943   -1.2135    0.0000 N   0  0  0  0  0  0  0  0  0  0  0  0
   -1.0323   -0.7500    0.0000 N   0  0  0  0  0  0  0  0  0  0  0  0
   -1.0323    0.7500    0.0000 C   0  0  0  0  0  0  0  0  0  0  0  0
   -2.1470    1.7537    0.0000 C   0  0  0  0  0  0  0  0  0  0  0  0
   -1.2677    6.3019    0.0000 N   0  0  0  0  0  0  0  0  0  0  0  0
   -1.4245    7.7937    0.0000 C   0  0  0  0  0  0  0  0  0  0  0  0
   -0.4208    8.9084    0.0000 C   0  0  0  0  0  0  0  0  0  0  0  0
   -0.8843   10.3350    0.0000 C   0  0  0  0  0  0  0  0  0  0  0  0
   -2.3515   10.6469    0.0000 C   0  0  0  0  0  0  0  0  0  0  0  0
   -3.3552    9.5322    0.0000 C   0  0  0  0  0  0  0  0  0  0  0  0
   -2.8917    8.1056    0.0000 N   0  0  0  0  0  0  0  0  0  0  0  0
   -5.7436    5.2794    0.0000 C   0  0  0  0  0  0  0  0  0  0  0  0
   -7.2354    5.1226    0.0000 C   0  0  0  0  0  0  0  0  0  0  0  0
   -7.8455    3.7523    0.0000 N   0  0  0  0  0  0  0  0  0  0  0  0
  1  2  1  0
  2  3  2  0
  3  4  1  0
  4  5  2  0
  5  6  1  0
  6  7  2  0
  7  8  1  0
  8  9  1  0
  9 10  2  0
 10 11  1  0
 11 12  2  0
 12 13  1  0
 13 14  2  0
 14 15  1  0
 15 16  1  0
 16 17  2  0
  7 18  1  0
 18 19  2  0
 19 20  1  0
 20 21  2  0
 21 22  1  0
 22 23  2  0
 23 24  1  0
  5 25  1  0
 25 26  2  0
 26 27  1  0
 26  2  1  0
 24  6  1  0
 17  9  1  0
 24 19  1  0
 16 12  1  0
M  END

