
     RDKit          2D

 40 45  0  0  0  0  0  0  0  0999 V2000
    3.0000    0.0000    0.0000 N   0  0  0  0  0  0  0  0  0  0  0  0
    1.5000    0.0000    0.0000 C   0  0  0  0  0  0  0  0  0  0  0  0
    0.7500   -1.2990    0.0000 C   0  0  0  0  0  0  0  0  0  0  0  0
   -0.7500   -1.2990    0.0000 C   0  0  0  0  0  0  0  0  0  0  0  0
   -1.5000    0.0000    0.0000 C   0  0  0  0  0  0  0  0  0  0  0  0
   -0.7500    1.2990    0.0000 C   0  0  0  0  0  0  0  0  0  0  0  0
   -1.5000    2.5981    0.0000 C   0  0  0  0  0  0  0  0  0  0  0  0
   -2.9918    2.7549    0.0000 C   0  0  0  0  0  0  0  0  0  0  0  0
   -3.3037    4.2221    0.0000 N   0  0  0  0  0  0  0  0  0  0  0  0
   -2.0046    4.9721    0.0000 N   0  0  0  0  0  0  0  0  0  0  0  0
   -0.8899    3.9684    0.0000 C   0  0  0  0  0  0  0  0  0  0  0  0
    0.7500    1.2990    0.0000 C   0  0  0  0  0  0  0  0  0  0  0  0
    1.5000    2.5981    0.0000 C   0  0  0  0  0  0  0  0  0  0  0  0
    3.0000    2.5981    0.0000 C   0  0  0  0  0  0  0  0  0  0  0  0
    3.7500    3.8971    0.0000 C   0  0  0  0  0  0  0  0  0  0  0  0
    3.0000    5.1962    0.0000 N   0  0  0  0  0  0  0  0  0  0  0  0
    3.7500    6.4952    0.0000 N   0  0  0  0  0  0  0  0  0  0  0  0
    3.1399    7.8655    0.0000 C   0  0  0  0  0  0  0  0  0  0  0  0
    4.2546    8.8692    0.0000 C   0  0  0  0  0  0  0  0  0  0  0  0
    4.0978   10.3610    0.0000 C   0  0  0  0  0  0  0  0  0  0  0  0
    5.3113   11.2427    0.0000 C   0  0  0  0  0  0  0  0  0  0  0  0
    5.1546   12.7344    0.0000 N   0  0  0  0  0  0  0  0  0  0  0  0
    6.0985   13.9002    0.0000 C   0  0  0  0  0  0  0  0  0  0  0  0
    4.9328   14.8441    0.0000 C   0  0  0  0  0  0  0  0  0  0  0  0
    3.9888   13.6784    0.0000 C   0  0  0  0  0  0  0  0  0  0  0  0
    5.5537    8.1192    0.0000 N   0  0  0  0  0  0  0  0  0  0  0  0
    5.2418    6.6520    0.0000 C   0  0  0  0  0  0  0  0  0  0  0  0
    6.2455    5.5373    0.0000 C   0  0  0  0  0  0  0  0  0  0  0  0
    5.7820    4.1107    0.0000 C   0  0  0  0  0  0  0  0  0  0  0  0
    6.7856    2.9960    0.0000 C   0  0  0  0  0  0  0  0  0  0  0  0
    6.3221    1.5694    0.0000 F   0  0  0  0  0  0  0  0  0  0  0  0
    8.2529    3.3078    0.0000 C   0  0  0  0  0  0  0  0  0  0  0  0
    8.7164    4.7344    0.0000 C   0  0  0  0  0  0  0  0  0  0  0  0
    7.7127    5.8491    0.0000 C   0  0  0  0  0  0  0  0  0  0  0  0
    8.1762    7.2757    0.0000 C   0  0  0  0  0  0  0  0  0  0  0  0
    8.6398    8.7023    0.0000 F   0  0  0  0  0  0  0  0  0  0  0  0
    9.6028    6.8122    0.0000 F   0  0  0  0  0  0  0  0  0  0  0  0
    6.7496    7.7392    0.0000 F   0  0  0  0  0  0  0  0  0  0  0  0
    1.5000    5.1962    0.0000 C   0  0  0  0  0  0  0  0  0  0  0  0
    0.7500    3.8971    0.0000 C   0  0  0  0  0  0  0  0  0  0  0  0
  1  2  1  0
  2  3  2  0
  3  4  1  0
  4  5  2  0
  5  6  1  0
  6  7  1  0
  7  8  2  0
  8  9  1  0
  9 10  1  0
 10 11  2  0
  6 12  2  0
 12 13  1  0
 13 14  1  0
 14 15  1  0
 15 16  1  0
 16 17  1  0
 17 18  1  0
 18 19  2  0
 19 20  1  0
 20 21  1  0
 21 22  1  0
 22 23  1  0
 23 24  1  0
 24 25  1  0
 19 26  1  0
 26 27  2  0
 27 28  1  0
 28 29  2  0
 29 30  1  0
 30 31  1  0
 30 32  2  0
 32 33  1  0
 33 34  2  0
 34 35  1  0
 35 36  1  0
 35 37  1  0
 35 38  1  0
 16 39  1  0
 39 40  1  0
 12  2  1  0
 40 13  1  0
 11  7  1  0
 27 17  1  0
 34 28  1  0
 25 22  1  0
M  END

