
     RDKit          2D

 36 40  0  0  0  0  0  0  0  0999 V2000
    3.7500    1.2990    0.0000 C   0  0  0  0  0  0  0  0  0  0  0  0
    3.0000    0.0000    0.0000 N   0  0  0  0  0  0  0  0  0  0  0  0
    1.5000    0.0000    0.0000 C   0  0  0  0  0  0  0  0  0  0  0  0
    0.7500   -1.2990    0.0000 C   0  0  0  0  0  0  0  0  0  0  0  0
    1.5000   -2.5981    0.0000 C   0  0  0  0  0  0  0  0  0  0  0  0
    0.7500   -3.8971    0.0000 C   0  0  0  0  0  0  0  0  0  0  0  0
    1.5000   -5.1962    0.0000 C   0  0  0  0  0  0  0  0  0  0  0  0
    3.0000   -5.1962    0.0000 N   0  0  0  0  0  0  0  0  0  0  0  0
    3.7500   -6.4952    0.0000 N   0  0  0  0  0  0  0  0  0  0  0  0
    5.2418   -6.6520    0.0000 C   0  0  0  0  0  0  0  0  0  0  0  0
    5.5537   -8.1192    0.0000 C   0  0  0  0  0  0  0  0  0  0  0  0
    6.9240   -8.7293    0.0000 C   0  0  0  0  0  0  0  0  0  0  0  0
    7.0808  -10.2211    0.0000 C   0  0  0  0  0  0  0  0  0  0  0  0
    6.1368  -11.3868    0.0000 C   0  0  0  0  0  0  0  0  0  0  0  0
    7.3025  -12.3308    0.0000 C   0  0  0  0  0  0  0  0  0  0  0  0
    8.2465  -11.1651    0.0000 N   0  0  0  0  0  0  0  0  0  0  0  0
    4.2546   -8.8692    0.0000 N   0  0  0  0  0  0  0  0  0  0  0  0
    3.1399   -7.8655    0.0000 C   0  0  0  0  0  0  0  0  0  0  0  0
    1.6727   -8.1774    0.0000 C   0  0  0  0  0  0  0  0  0  0  0  0
    0.6690   -7.0627    0.0000 C   0  0  0  0  0  0  0  0  0  0  0  0
   -0.7982   -7.3745    0.0000 C   0  0  0  0  0  0  0  0  0  0  0  0
   -1.8019   -6.2598    0.0000 F   0  0  0  0  0  0  0  0  0  0  0  0
   -1.2618   -8.8011    0.0000 C   0  0  0  0  0  0  0  0  0  0  0  0
   -0.2581   -9.9158    0.0000 C   0  0  0  0  0  0  0  0  0  0  0  0
    1.2091   -9.6040    0.0000 C   0  0  0  0  0  0  0  0  0  0  0  0
    2.2128  -10.7187    0.0000 C   0  0  0  0  0  0  0  0  0  0  0  0
    3.2165  -11.8334    0.0000 F   0  0  0  0  0  0  0  0  0  0  0  0
    1.0981  -11.7224    0.0000 F   0  0  0  0  0  0  0  0  0  0  0  0
    3.3276   -9.7150    0.0000 F   0  0  0  0  0  0  0  0  0  0  0  0
    3.7500   -3.8971    0.0000 C   0  0  0  0  0  0  0  0  0  0  0  0
    3.0000   -2.5981    0.0000 C   0  0  0  0  0  0  0  0  0  0  0  0
   -0.7500   -1.2990    0.0000 C   0  0  0  0  0  0  0  0  0  0  0  0
   -1.5000   -2.5981    0.0000 N   0  0  0  0  0  0  0  0  0  0  0  0
   -1.5000    0.0000    0.0000 C   0  0  0  0  0  0  0  0  0  0  0  0
   -0.7500    1.2990    0.0000 C   0  0  0  0  0  0  0  0  0  0  0  0
    0.7500    1.2990    0.0000 C   0  0  0  0  0  0  0  0  0  0  0  0
  1  2  1  0
  2  3  1  0
  3  4  2  0
  4  5  1  0
  5  6  1  0
  6  7  1  0
  7  8  1  0
  8  9  1  0
  9 10  1  0
 10 11  2  0
 11 12  1  0
 12 13  1  0
 13 14  1  0
 14 15  1  0
 15 16  1  0
 11 17  1  0
 17 18  2  0
 18 19  1  0
 19 20  2  0
 20 21  1  0
 21 22  1  0
 21 23  2  0
 23 24  1  0
 24 25  2  0
 25 26  1  0
 26 27  1  0
 26 28  1  0
 26 29  1  0
  8 30  1  0
 30 31  1  0
  4 32  1  0
 32 33  1  0
 32 34  2  0
 34 35  1  0
 35 36  2  0
 36  3  1  0
 31  5  1  0
 18  9  1  0
 25 19  1  0
 16 13  1  0
M  END

