
     RDKit          2D

 29 31  0  0  0  0  0  0  0  0999 V2000
    2.2844   -2.1766    0.0000 C   0  0  0  0  0  0  0  0  0  0  0  0
    0.8578   -2.6401    0.0000 C   0  0  0  0  0  0  0  0  0  0  0  0
   -0.5688   -3.1036    0.0000 C   0  0  0  0  0  0  0  0  0  0  0  0
    1.3213   -4.0667    0.0000 N   0  0  0  0  0  0  0  0  0  0  0  0
    0.3943    1.2135    0.0000 C   0  0  0  0  0  0  0  0  0  0  0  0
    1.2760    0.0000    0.0000 C   0  0  0  0  0  0  0  0  0  0  0  0
    0.3943   -1.2135    0.0000 C   0  0  0  0  0  0  0  0  0  0  0  0
   -1.0323   -0.7500    0.0000 O   0  0  0  0  0  0  0  0  0  0  0  0
   -1.0323    0.7500    0.0000 N   0  0  0  0  0  0  0  0  0  0  0  0
    2.2844    3.1036    0.0000 C   0  0  0  0  0  0  0  0  0  0  0  0
    2.2844    4.6036    0.0000 N   0  0  0  0  0  0  0  0  0  0  0  0
    0.8578    5.0672    0.0000 C   0  0  0  0  0  0  0  0  0  0  0  0
   -0.0239    3.8536    0.0000 S   0  0  0  0  0  0  0  0  0  0  0  0
    0.8578    2.6401    0.0000 C   0  0  0  0  0  0  0  0  0  0  0  0
   -1.0729    6.8056    0.0000 O   0  0  0  0  0  0  0  0  0  0  0  0
    0.3943    6.4937    0.0000 C   0  0  0  0  0  0  0  0  0  0  0  0
    1.3980    7.6085    0.0000 N   0  0  0  0  0  0  0  0  0  0  0  0
    1.8161   10.2486    0.0000 N   0  0  0  0  0  0  0  0  0  0  0  0
    0.9345   11.4621    0.0000 C   0  0  0  0  0  0  0  0  0  0  0  0
   -0.4921   10.9986    0.0000 C   0  0  0  0  0  0  0  0  0  0  0  0
   -0.4921    9.4986    0.0000 C   0  0  0  0  0  0  0  0  0  0  0  0
    0.9345    9.0350    0.0000 C   0  0  0  0  0  0  0  0  0  0  0  0
   -4.2895    8.3453    0.0000 N   0  0  0  0  0  0  0  0  0  0  0  0
   -3.0760    9.2270    0.0000 C   0  0  0  0  0  0  0  0  0  0  0  0
   -3.2328   10.7188    0.0000 O   0  0  0  0  0  0  0  0  0  0  0  0
   -1.7056    8.6169    0.0000 C   0  0  0  0  0  0  0  0  0  0  0  0
    3.3161   10.2486    0.0000 C   0  0  0  0  0  0  0  0  0  0  0  0
    4.7115    1.3403    0.0000 N   0  0  0  0  0  0  0  0  0  0  0  0
    3.4979    2.2220    0.0000 C   0  0  0  0  0  0  0  0  0  0  0  0
  1  2  1  0
  2  3  1  0
  2  4  1  0
  5  6  1  0
  6  7  2  0
  7  8  1  0
  8  9  1  0
  9  5  2  0
 10 11  1  0
 11 12  2  0
 12 13  1  0
 13 14  1  0
 14 10  2  0
 15 16  2  0
 16 17  1  0
 18 19  1  0
 19 20  1  0
 20 21  1  0
 21 22  1  0
 22 18  1  0
 23 24  1  0
 24 25  2  0
 24 26  1  0
 28 29  3  0
  2  7  1  0
  5 14  1  0
 12 16  1  0
 22 17  1  1
 21 26  1  6
 18 27  1  0
 10 29  1  0
M  END

