
     RDKit          2D

 32 36  0  0  0  0  0  0  0  0999 V2000
   -0.3633  -22.1920    0.0000 F   0  0  0  0  0  0  0  0  0  0  0  0
   -1.2064  -15.8638    0.0000 C   0  0  0  0  0  0  0  0  0  0  0  0
   -2.5054  -16.6138    0.0000 N   0  0  0  0  0  0  0  0  0  0  0  0
   -2.1936  -18.0810    0.0000 C   0  0  0  0  0  0  0  0  0  0  0  0
   -3.0753  -19.2945    0.0000 C   0  0  0  0  0  0  0  0  0  0  0  0
   -2.4651  -20.6649    0.0000 C   0  0  0  0  0  0  0  0  0  0  0  0
   -0.9734  -20.8217    0.0000 C   0  0  0  0  0  0  0  0  0  0  0  0
   -0.0917  -19.6081    0.0000 C   0  0  0  0  0  0  0  0  0  0  0  0
   -0.7018  -18.2378    0.0000 C   0  0  0  0  0  0  0  0  0  0  0  0
   -0.0917  -16.8675    0.0000 S   0  0  0  0  0  0  0  0  0  0  0  0
    1.5342  -14.6436    0.0000 O   0  0  0  0  0  0  0  0  0  0  0  0
    0.3207  -13.7619    0.0000 C   0  0  0  0  0  0  0  0  0  0  0  0
    0.4775  -12.2701    0.0000 C   0  0  0  0  0  0  0  0  0  0  0  0
    1.8478  -11.6600    0.0000 S   0  0  0  0  0  0  0  0  0  0  0  0
   -1.0496  -14.3720    0.0000 N   0  0  0  0  0  0  0  0  0  0  0  0
    1.5000   -7.7942    0.0000 C   0  0  0  0  0  0  0  0  0  0  0  0
    2.9918   -7.9510    0.0000 N   0  0  0  0  0  0  0  0  0  0  0  0
    3.3037   -9.4182    0.0000 N   0  0  0  0  0  0  0  0  0  0  0  0
    2.0046  -10.1682    0.0000 C   0  0  0  0  0  0  0  0  0  0  0  0
    0.8899   -9.1645    0.0000 O   0  0  0  0  0  0  0  0  0  0  0  0
    1.5000   -5.1962    0.0000 C   0  0  0  0  0  0  0  0  0  0  0  0
    0.7500   -6.4952    0.0000 O   0  0  0  0  0  0  0  0  0  0  0  0
    0.7500   -3.8971    0.0000 C   0  0  0  0  0  0  0  0  0  0  0  0
   -0.7500   -3.8971    0.0000 C   0  0  0  0  0  0  0  0  0  0  0  0
   -1.5000   -2.5981    0.0000 C   0  0  0  0  0  0  0  0  0  0  0  0
   -0.7500   -1.2990    0.0000 C   0  0  0  0  0  0  0  0  0  0  0  0
    0.7500   -1.2990    0.0000 C   0  0  0  0  0  0  0  0  0  0  0  0
    1.5000   -2.5981    0.0000 C   0  0  0  0  0  0  0  0  0  0  0  0
    1.5000    0.0000    0.0000 C   0  0  0  0  0  0  0  0  0  0  0  0
    0.7500    1.2990    0.0000 C   0  0  0  0  0  0  0  0  0  0  0  0
   -0.7500    1.2990    0.0000 C   0  0  0  0  0  0  0  0  0  0  0  0
   -1.5000    0.0000    0.0000 C   0  0  0  0  0  0  0  0  0  0  0  0
  2  3  2  0
  3  4  1  0
  4  5  2  0
  5  6  1  0
  6  7  2  0
  7  8  1  0
  8  9  2  0
  9 10  1  0
 10  2  1  0
  9  4  1  0
 11 12  2  0
 12 13  1  0
 13 14  1  0
 12 15  1  0
 16 17  2  0
 17 18  1  0
 18 19  2  0
 19 20  1  0
 20 16  1  0
 21 22  1  0
 23 24  2  0
 24 25  1  0
 25 26  2  0
 26 27  1  0
 27 28  2  0
 27 29  1  0
 29 30  1  0
 30 31  1  0
 31 32  1  0
 28 23  1  0
 32 26  1  0
  1  7  1  0
  2 15  1  0
 14 19  1  0
 16 22  1  0
 21 23  1  0
M  ISO  1   1  18
M  END

