
     RDKit          2D

 34 38  0  0  0  0  0  0  0  0999 V2000
    6.3767    3.5094    0.0000 N   0  0  0  0  0  0  0  0  0  0  0  0
    4.9859    4.0713    0.0000 C   0  0  0  0  0  0  0  0  0  0  0  0
    5.7808    5.3434    0.0000 C   0  0  0  0  0  0  0  0  0  0  0  0
    7.2799    5.2910    0.0000 C   0  0  0  0  0  0  0  0  0  0  0  0
    8.0748    6.5631    0.0000 C   0  0  0  0  0  0  0  0  0  0  0  0
    9.5739    6.5108    0.0000 C   0  0  0  0  0  0  0  0  0  0  0  0
   10.2781    5.1863    0.0000 C   0  0  0  0  0  0  0  0  0  0  0  0
   11.7771    5.1340    0.0000 C   0  0  0  0  0  0  0  0  0  0  0  0
   12.5720    6.4061    0.0000 C   0  0  0  0  0  0  0  0  0  0  0  0
   14.0711    6.3537    0.0000 Cl  0  0  0  0  0  0  0  0  0  0  0  0
   11.8678    7.7305    0.0000 C   0  0  0  0  0  0  0  0  0  0  0  0
   10.3687    7.7828    0.0000 C   0  0  0  0  0  0  0  0  0  0  0  0
    5.0766    6.6678    0.0000 N   0  0  0  0  0  0  0  0  0  0  0  0
    5.8715    7.9399    0.0000 C   0  0  0  0  0  0  0  0  0  0  0  0
    7.3706    7.8875    0.0000 O   0  0  0  0  0  0  0  0  0  0  0  0
    5.1673    9.2643    0.0000 N   0  0  0  0  0  0  0  0  0  0  0  0
    3.6819    9.4731    0.0000 C   0  0  0  0  0  0  0  0  0  0  0  0
    3.4214   10.9503    0.0000 C   0  0  0  0  0  0  0  0  0  0  0  0
    4.7458   11.6545    0.0000 C   0  0  0  0  0  0  0  0  0  0  0  0
    5.8248   10.6125    0.0000 C   0  0  0  0  0  0  0  0  0  0  0  0
    3.8712    5.0750    0.0000 C   0  0  0  0  0  0  0  0  0  0  0  0
    2.4446    4.6115    0.0000 C   0  0  0  0  0  0  0  0  0  0  0  0
    2.1328    3.1443    0.0000 N   0  0  0  0  0  0  0  0  0  0  0  0
    0.7062    2.6807    0.0000 C   0  0  0  0  0  0  0  0  0  0  0  0
   -0.4086    3.6844    0.0000 N   0  0  0  0  0  0  0  0  0  0  0  0
   -1.8351    3.2209    0.0000 C   0  0  0  0  0  0  0  0  0  0  0  0
   -2.1470    1.7537    0.0000 N   0  0  0  0  0  0  0  0  0  0  0  0
   -1.0323    0.7500    0.0000 C   0  0  0  0  0  0  0  0  0  0  0  0
    0.3943    1.2135    0.0000 C   0  0  0  0  0  0  0  0  0  0  0  0
    1.2760    0.0000    0.0000 C   0  0  0  0  0  0  0  0  0  0  0  0
    0.3943   -1.2135    0.0000 C   0  0  0  0  0  0  0  0  0  0  0  0
   -1.0323   -0.7500    0.0000 N   0  0  0  0  0  0  0  0  0  0  0  0
    3.2475    2.1406    0.0000 C   0  0  0  0  0  0  0  0  0  0  0  0
    4.6741    2.6041    0.0000 C   0  0  0  0  0  0  0  0  0  0  0  0
  1  2  1  0
  2  3  1  0
  3  4  1  6
  4  5  1  0
  5  6  1  0
  6  7  2  0
  7  8  1  0
  8  9  2  0
  9 10  1  0
  9 11  1  0
 11 12  2  0
  3 13  1  0
 13 14  1  0
 14 15  2  0
 14 16  1  0
 16 17  1  0
 17 18  1  0
 18 19  1  0
 19 20  1  0
  2 21  1  0
 21 22  1  0
 22 23  1  0
 23 24  1  0
 24 25  2  0
 25 26  1  0
 26 27  2  0
 27 28  1  0
 28 29  2  0
 29 30  1  0
 30 31  2  0
 31 32  1  0
 23 33  1  0
 33 34  1  0
 34  2  1  0
 12  6  1  0
 20 16  1  0
 29 24  1  0
 32 28  1  0
M  END

