
     RDKit          2D

 29 33  0  0  0  0  0  0  0  0999 V2000
    2.6401   -3.1891    0.0000 C   0  0  0  0  0  0  0  0  0  0  0  0
    2.9520   -4.6564    0.0000 C   0  0  0  0  0  0  0  0  0  0  0  0
    4.3786   -5.1199    0.0000 C   0  0  0  0  0  0  0  0  0  0  0  0
    5.4933   -4.1162    0.0000 O   0  0  0  0  0  0  0  0  0  0  0  0
    4.6904   -6.5871    0.0000 C   0  0  0  0  0  0  0  0  0  0  0  0
    3.6867   -7.7018    0.0000 C   0  0  0  0  0  0  0  0  0  0  0  0
    4.4367   -9.0009    0.0000 N   0  0  0  0  0  0  0  0  0  0  0  0
    5.9040   -8.6890    0.0000 C   0  0  0  0  0  0  0  0  0  0  0  0
    6.0607   -7.1972    0.0000 C   0  0  0  0  0  0  0  0  0  0  0  0
    7.4311   -6.5871    0.0000 C   0  0  0  0  0  0  0  0  0  0  0  0
    7.5879   -5.0953    0.0000 F   0  0  0  0  0  0  0  0  0  0  0  0
    8.6446   -7.4688    0.0000 N   0  0  0  0  0  0  0  0  0  0  0  0
    8.4878   -8.9606    0.0000 C   0  0  0  0  0  0  0  0  0  0  0  0
    7.1175   -9.5707    0.0000 N   0  0  0  0  0  0  0  0  0  0  0  0
    1.8373   -5.6601    0.0000 C   0  0  0  0  0  0  0  0  0  0  0  0
    2.1491   -7.1273    0.0000 N   0  0  0  0  0  0  0  0  0  0  0  0
    1.0344   -8.1310    0.0000 N   0  0  0  0  0  0  0  0  0  0  0  0
    1.0344   -9.6310    0.0000 C   0  0  0  0  0  0  0  0  0  0  0  0
   -0.3922  -10.0945    0.0000 C   0  0  0  0  0  0  0  0  0  0  0  0
   -1.2739   -8.8810    0.0000 C   0  0  0  0  0  0  0  0  0  0  0  0
   -0.3922   -7.6675    0.0000 C   0  0  0  0  0  0  0  0  0  0  0  0
   -0.7040   -6.2002    0.0000 C   0  0  0  0  0  0  0  0  0  0  0  0
   -2.1306   -5.7367    0.0000 O   0  0  0  0  0  0  0  0  0  0  0  0
    0.4107   -5.1965    0.0000 N   0  0  0  0  0  0  0  0  0  0  0  0
    0.0988   -3.7293    0.0000 N   0  0  0  0  0  0  0  0  0  0  0  0
   -1.2715   -3.1192    0.0000 C   0  0  0  0  0  0  0  0  0  0  0  0
   -1.1147   -1.6274    0.0000 C   0  0  0  0  0  0  0  0  0  0  0  0
    0.3525   -1.3156    0.0000 C   0  0  0  0  0  0  0  0  0  0  0  0
    1.1025   -2.6146    0.0000 C   0  0  0  0  0  0  0  0  0  0  0  0
  1  2  1  0
  2  3  1  0
  3  4  2  0
  3  5  1  0
  5  6  2  0
  6  7  1  0
  7  8  1  0
  8  9  2  0
  9 10  1  0
 10 11  1  0
 10 12  2  0
 12 13  1  0
 13 14  2  0
  2 15  1  0
 15 16  2  0
 16 17  1  0
 17 18  1  0
 18 19  2  0
 19 20  1  0
 20 21  2  0
 21 22  1  0
 22 23  2  0
 22 24  1  0
 24 25  1  0
 25 26  1  0
 26 27  2  0
 27 28  1  0
 28 29  2  0
  9  5  1  0
 24 15  1  0
 29 25  1  0
 14  8  1  0
 21 17  1  0
M  END

