
     RDKit          2D

 36 40  0  0  0  0  0  0  0  0999 V2000
    3.0000    0.0000    0.0000 N   0  0  0  0  0  0  0  0  0  0  0  0
    1.5000    0.0000    0.0000 C   0  0  0  0  0  0  0  0  0  0  0  0
    0.7500   -1.2990    0.0000 C   0  0  0  0  0  0  0  0  0  0  0  0
   -0.7500   -1.2990    0.0000 C   0  0  0  0  0  0  0  0  0  0  0  0
   -1.5000    0.0000    0.0000 C   0  0  0  0  0  0  0  0  0  0  0  0
   -0.7500    1.2990    0.0000 C   0  0  0  0  0  0  0  0  0  0  0  0
   -1.5000    2.5981    0.0000 I   0  0  0  0  0  0  0  0  0  0  0  0
    0.7500    1.2990    0.0000 C   0  0  0  0  0  0  0  0  0  0  0  0
    1.5000    2.5981    0.0000 C   0  0  0  0  0  0  0  0  0  0  0  0
    3.0000    2.5981    0.0000 C   0  0  0  0  0  0  0  0  0  0  0  0
    3.7500    3.8971    0.0000 C   0  0  0  0  0  0  0  0  0  0  0  0
    3.0000    5.1962    0.0000 N   0  0  0  0  0  0  0  0  0  0  0  0
    3.7500    6.4952    0.0000 N   0  0  0  0  0  0  0  0  0  0  0  0
    3.1399    7.8655    0.0000 C   0  0  0  0  0  0  0  0  0  0  0  0
    4.2546    8.8692    0.0000 C   0  0  0  0  0  0  0  0  0  0  0  0
    4.0978   10.3610    0.0000 C   0  0  0  0  0  0  0  0  0  0  0  0
    5.3113   11.2427    0.0000 C   0  0  0  0  0  0  0  0  0  0  0  0
    5.1546   12.7344    0.0000 N   0  0  0  0  0  0  0  0  0  0  0  0
    6.0985   13.9002    0.0000 C   0  0  0  0  0  0  0  0  0  0  0  0
    4.9328   14.8441    0.0000 C   0  0  0  0  0  0  0  0  0  0  0  0
    3.9888   13.6784    0.0000 C   0  0  0  0  0  0  0  0  0  0  0  0
    5.5537    8.1192    0.0000 N   0  0  0  0  0  0  0  0  0  0  0  0
    5.2418    6.6520    0.0000 C   0  0  0  0  0  0  0  0  0  0  0  0
    6.2455    5.5373    0.0000 C   0  0  0  0  0  0  0  0  0  0  0  0
    5.7820    4.1107    0.0000 C   0  0  0  0  0  0  0  0  0  0  0  0
    6.7856    2.9960    0.0000 C   0  0  0  0  0  0  0  0  0  0  0  0
    6.3221    1.5694    0.0000 F   0  0  0  0  0  0  0  0  0  0  0  0
    8.2529    3.3078    0.0000 C   0  0  0  0  0  0  0  0  0  0  0  0
    8.7164    4.7344    0.0000 C   0  0  0  0  0  0  0  0  0  0  0  0
    7.7127    5.8491    0.0000 C   0  0  0  0  0  0  0  0  0  0  0  0
    8.1762    7.2757    0.0000 C   0  0  0  0  0  0  0  0  0  0  0  0
    8.6398    8.7023    0.0000 F   0  0  0  0  0  0  0  0  0  0  0  0
    9.6028    6.8122    0.0000 F   0  0  0  0  0  0  0  0  0  0  0  0
    6.7496    7.7392    0.0000 F   0  0  0  0  0  0  0  0  0  0  0  0
    1.5000    5.1962    0.0000 C   0  0  0  0  0  0  0  0  0  0  0  0
    0.7500    3.8971    0.0000 C   0  0  0  0  0  0  0  0  0  0  0  0
  1  2  1  0
  2  3  2  0
  3  4  1  0
  4  5  2  0
  5  6  1  0
  6  7  1  0
  6  8  2  0
  8  9  1  0
  9 10  1  0
 10 11  1  0
 11 12  1  0
 12 13  1  0
 13 14  1  0
 14 15  2  0
 15 16  1  0
 16 17  1  0
 17 18  1  0
 18 19  1  0
 19 20  1  0
 20 21  1  0
 15 22  1  0
 22 23  2  0
 23 24  1  0
 24 25  2  0
 25 26  1  0
 26 27  1  0
 26 28  2  0
 28 29  1  0
 29 30  2  0
 30 31  1  0
 31 32  1  0
 31 33  1  0
 31 34  1  0
 12 35  1  0
 35 36  1  0
  8  2  1  0
 36  9  1  0
 23 13  1  0
 30 24  1  0
 21 18  1  0
M  END

