
     RDKit          2D

 30 34  0  0  0  0  0  0  0  0999 V2000
   -0.0000   -5.1073    0.0000 C   0  0  0  0  0  0  0  0  0  0  0  0
   -0.0000   -3.6073    0.0000 C   0  0  0  0  0  0  0  0  0  0  0  0
    1.2135   -2.7256    0.0000 C   0  0  0  0  0  0  0  0  0  0  0  0
    0.7500   -1.2990    0.0000 C   0  0  0  0  0  0  0  0  0  0  0  0
    1.5000    0.0000    0.0000 C   0  0  0  0  0  0  0  0  0  0  0  0
    0.7500    1.2990    0.0000 C   0  0  0  0  0  0  0  0  0  0  0  0
   -0.7500    1.2990    0.0000 C   0  0  0  0  0  0  0  0  0  0  0  0
   -1.5000    0.0000    0.0000 C   0  0  0  0  0  0  0  0  0  0  0  0
   -0.7500   -1.2990    0.0000 C   0  0  0  0  0  0  0  0  0  0  0  0
   -1.2135   -2.7256    0.0000 N   0  0  0  0  0  0  0  0  0  0  0  0
   -2.6401   -3.1891    0.0000 C   0  0  0  0  0  0  0  0  0  0  0  0
   -2.9520   -4.6564    0.0000 O   0  0  0  0  0  0  0  0  0  0  0  0
   -3.7548   -2.1855    0.0000 C   0  0  0  0  0  0  0  0  0  0  0  0
   -5.1814   -2.6490    0.0000 C   0  0  0  0  0  0  0  0  0  0  0  0
   -6.3949   -1.7673    0.0000 N   0  0  0  0  0  0  0  0  0  0  0  0
   -7.6085   -2.6490    0.0000 C   0  0  0  0  0  0  0  0  0  0  0  0
   -9.0757   -2.3371    0.0000 C   0  0  0  0  0  0  0  0  0  0  0  0
  -10.0794   -3.4518    0.0000 C   0  0  0  0  0  0  0  0  0  0  0  0
  -11.5466   -3.1400    0.0000 N   0  0  0  0  0  0  0  0  0  0  0  0
  -12.0101   -1.7134    0.0000 C   0  0  0  0  0  0  0  0  0  0  0  0
  -13.4773   -1.4015    0.0000 C   0  0  0  0  0  0  0  0  0  0  0  0
  -14.4810   -2.5162    0.0000 O   0  0  0  0  0  0  0  0  0  0  0  0
  -14.0175   -3.9428    0.0000 C   0  0  0  0  0  0  0  0  0  0  0  0
  -12.5503   -4.2547    0.0000 C   0  0  0  0  0  0  0  0  0  0  0  0
   -9.6159   -4.8784    0.0000 C   0  0  0  0  0  0  0  0  0  0  0  0
   -8.1486   -5.1903    0.0000 N   0  0  0  0  0  0  0  0  0  0  0  0
   -7.1449   -4.0756    0.0000 C   0  0  0  0  0  0  0  0  0  0  0  0
   -5.6449   -4.0756    0.0000 N   0  0  0  0  0  0  0  0  0  0  0  0
   -4.7633   -5.2891    0.0000 C   0  0  0  0  0  0  0  0  0  0  0  0
   -5.3734   -6.6594    0.0000 N   0  0  0  0  0  0  0  0  0  0  0  0
  2  1  1  1
  2  3  1  0
  3  4  1  0
  4  5  2  0
  5  6  1  0
  6  7  2  0
  7  8  1  0
  8  9  2  0
  9 10  1  0
 10 11  1  0
 11 12  2  0
 11 13  1  0
 13 14  1  0
 14 15  2  0
 15 16  1  0
 16 17  2  0
 17 18  1  0
 18 19  1  0
 19 20  1  0
 20 21  1  0
 21 22  1  0
 22 23  1  0
 23 24  1  0
 18 25  2  0
 25 26  1  0
 26 27  2  0
 27 28  1  0
 28 29  1  0
 29 30  1  0
 10  2  1  0
 28 14  1  0
  9  4  1  0
 27 16  1  0
 24 19  1  0
M  END

