
     RDKit          2D

 42 46  0  0  0  0  0  0  0  0999 V2000
   -4.5000   10.3923    0.0000 F   0  0  0  0  0  0  0  0  0  0  0  0
   -5.2500    9.0933    0.0000 C   0  0  0  0  0  0  0  0  0  0  0  0
   -6.5490    9.8433    0.0000 F   0  0  0  0  0  0  0  0  0  0  0  0
   -3.9510    8.3433    0.0000 F   0  0  0  0  0  0  0  0  0  0  0  0
   -6.0000    7.7942    0.0000 C   0  0  0  0  0  0  0  0  0  0  0  0
   -5.2500    6.4952    0.0000 N   0  0  0  0  0  0  0  0  0  0  0  0
   -7.5000    5.1962    0.0000 C   0  0  0  0  0  0  0  0  0  0  0  0
   -8.2500    3.8971    0.0000 N   0  0  0  0  0  0  0  0  0  0  0  0
   -7.5000    2.5981    0.0000 C   0  0  0  0  0  0  0  0  0  0  0  0
   -6.0000    2.5981    0.0000 N   0  0  0  0  0  0  0  0  0  0  0  0
   -5.2500    3.8971    0.0000 C   0  0  0  0  0  0  0  0  0  0  0  0
   -6.0000    5.1962    0.0000 C   0  0  0  0  0  0  0  0  0  0  0  0
   -1.5000    5.1962    0.0000 N   0  0  0  0  0  0  0  0  0  0  0  0
   -0.7500    3.8971    0.0000 C   0  0  0  0  0  0  0  0  0  0  0  0
   -1.5000    2.5981    0.0000 C   0  0  0  0  0  0  0  0  0  0  0  0
   -3.0000    2.5981    0.0000 C   0  0  0  0  0  0  0  0  0  0  0  0
   -3.7500    3.8971    0.0000 C   0  0  0  0  0  0  0  0  0  0  0  0
   -3.0000    5.1962    0.0000 C   0  0  0  0  0  0  0  0  0  0  0  0
    0.7500    9.0933    0.0000 C   0  0  0  0  0  0  0  0  0  0  0  0
   -0.7500    9.0933    0.0000 C   0  0  0  0  0  0  0  0  0  0  0  0
   -1.5000    7.7942    0.0000 C   0  0  0  0  0  0  0  0  0  0  0  0
   -0.7500    6.4952    0.0000 C   0  0  0  0  0  0  0  0  0  0  0  0
    0.7500    6.4952    0.0000 C   0  0  0  0  0  0  0  0  0  0  0  0
    1.5000    7.7942    0.0000 C   0  0  0  0  0  0  0  0  0  0  0  0
    0.7500    3.8971    0.0000 C   0  0  0  0  0  0  0  0  0  0  0  0
    1.5000    5.1962    0.0000 C   0  0  0  0  0  0  0  0  0  0  0  0
    1.5000    2.5981    0.0000 N   0  0  0  0  0  0  0  0  0  0  0  0
    2.9489    2.2098    0.0000 C   0  0  0  0  0  0  0  0  0  0  0  0
    2.5607    0.7610    0.0000 C   0  0  0  0  0  0  0  0  0  0  0  0
    1.1118    1.1492    0.0000 C   0  0  0  0  0  0  0  0  0  0  0  0
    1.5000   12.9904    0.0000 C   0  0  0  0  0  0  0  0  0  0  0  0
    3.0000   12.9904    0.0000 C   0  0  0  0  0  0  0  0  0  0  0  0
    3.7500   11.6913    0.0000 C   0  0  0  0  0  0  0  0  0  0  0  0
    3.0000   10.3923    0.0000 C   0  0  0  0  0  0  0  0  0  0  0  0
    1.5000   10.3923    0.0000 C   0  0  0  0  0  0  0  0  0  0  0  0
    0.7500   11.6913    0.0000 C   0  0  0  0  0  0  0  0  0  0  0  0
    4.5000    7.7942    0.0000 F   0  0  0  0  0  0  0  0  0  0  0  0
    3.7500    9.0933    0.0000 C   0  0  0  0  0  0  0  0  0  0  0  0
    5.0490    9.8433    0.0000 F   0  0  0  0  0  0  0  0  0  0  0  0
    2.4510    8.3433    0.0000 F   0  0  0  0  0  0  0  0  0  0  0  0
    0.7500   14.2894    0.0000 F   0  0  0  0  0  0  0  0  0  0  0  0
   -8.2500    6.4952    0.0000 N   0  0  0  0  0  0  0  0  0  0  0  0
  1  2  1  0
  2  3  1  0
  2  4  1  0
  2  5  1  0
  5  6  1  0
  7  8  2  0
  8  9  1  0
  9 10  2  0
 10 11  1  0
 11 12  2  0
 12  7  1  0
 13 14  1  0
 14 15  1  0
 15 16  1  0
 16 17  1  0
 17 18  1  0
 18 13  1  0
 19 20  2  0
 20 21  1  0
 21 22  2  0
 22 23  1  0
 23 24  2  0
 24 19  1  0
 25 26  1  0
 27 28  1  0
 28 29  1  0
 29 30  1  0
 30 27  1  0
 31 32  2  0
 32 33  1  0
 33 34  2  0
 34 35  1  0
 35 36  2  0
 36 31  1  0
 37 38  1  0
 38 39  1  0
 38 40  1  0
  6 12  1  0
 17 11  1  6
 13 22  1  0
 23 26  1  0
 25 27  1  0
 19 35  1  0
 34 38  1  0
 31 41  1  0
  7 42  1  0
M  END

