
     RDKit          2D

 40 44  0  0  0  0  0  0  0  0999 V2000
    3.7500   -1.2990    0.0000 C   0  0  0  0  0  0  0  0  0  0  0  0
    3.0000    0.0000    0.0000 C   0  0  0  0  0  0  0  0  0  0  0  0
    1.5000    0.0000    0.0000 C   0  0  0  0  0  0  0  0  0  0  0  0
    0.7500   -1.2990    0.0000 C   0  0  0  0  0  0  0  0  0  0  0  0
    1.5000   -2.5981    0.0000 N   0  0  0  0  0  0  0  0  0  0  0  0
   -0.7500   -1.2990    0.0000 N   0  0  0  0  0  0  0  0  0  0  0  0
   -1.5000    0.0000    0.0000 C   0  0  0  0  0  0  0  0  0  0  0  0
   -0.7500    1.2990    0.0000 N   0  0  0  0  0  0  0  0  0  0  0  0
    0.7500    1.2990    0.0000 C   0  0  0  0  0  0  0  0  0  0  0  0
    1.5000    2.5981    0.0000 N   0  0  0  0  0  0  0  0  0  0  0  0
    3.0000    2.5981    0.0000 C   0  0  0  0  0  0  0  0  0  0  0  0
    3.7500    3.8971    0.0000 C   0  0  0  0  0  0  0  0  0  0  0  0
    3.0000    5.1962    0.0000 C   0  0  0  0  0  0  0  0  0  0  0  0
    1.5000    5.1962    0.0000 C   0  0  0  0  0  0  0  0  0  0  0  0
    0.7500    6.4952    0.0000 C   0  0  0  0  0  0  0  0  0  0  0  0
   -0.7418    6.6520    0.0000 N   0  0  0  0  0  0  0  0  0  0  0  0
   -1.0537    8.1192    0.0000 C   0  0  0  0  0  0  0  0  0  0  0  0
   -2.4240    8.7293    0.0000 C   0  0  0  0  0  0  0  0  0  0  0  0
   -2.5808   10.2211    0.0000 C   0  0  0  0  0  0  0  0  0  0  0  0
   -3.9511   10.8312    0.0000 C   0  0  0  0  0  0  0  0  0  0  0  0
   -4.1079   12.3230    0.0000 C   0  0  0  0  0  0  0  0  0  0  0  0
   -4.2647   13.8148    0.0000 F   0  0  0  0  0  0  0  0  0  0  0  0
   -2.6161   12.4798    0.0000 F   0  0  0  0  0  0  0  0  0  0  0  0
   -5.5997   12.1662    0.0000 F   0  0  0  0  0  0  0  0  0  0  0  0
   -5.1646    9.9495    0.0000 C   0  0  0  0  0  0  0  0  0  0  0  0
   -5.0078    8.4577    0.0000 C   0  0  0  0  0  0  0  0  0  0  0  0
   -3.6375    7.8476    0.0000 C   0  0  0  0  0  0  0  0  0  0  0  0
   -3.4807    6.3558    0.0000 F   0  0  0  0  0  0  0  0  0  0  0  0
    0.2454    8.8692    0.0000 C   0  0  0  0  0  0  0  0  0  0  0  0
    1.3601    7.8655    0.0000 N   0  0  0  0  0  0  0  0  0  0  0  0
    2.8273    8.1774    0.0000 C   0  0  0  0  0  0  0  0  0  0  0  0
    3.2909    9.6040    0.0000 C   0  0  0  0  0  0  0  0  0  0  0  0
    4.7581    9.9158    0.0000 N   0  0  0  0  0  0  0  0  0  0  0  0
    5.7618    8.8011    0.0000 C   0  0  0  0  0  0  0  0  0  0  0  0
    7.2290    9.1130    0.0000 C   0  0  0  0  0  0  0  0  0  0  0  0
    7.6925   10.5396    0.0000 C   0  0  0  0  0  0  0  0  0  0  0  0
    9.1597   10.8514    0.0000 F   0  0  0  0  0  0  0  0  0  0  0  0
    6.6888   11.6543    0.0000 C   0  0  0  0  0  0  0  0  0  0  0  0
    5.2216   11.3424    0.0000 C   0  0  0  0  0  0  0  0  0  0  0  0
    0.7500    3.8971    0.0000 C   0  0  0  0  0  0  0  0  0  0  0  0
  1  2  1  0
  2  3  1  0
  3  4  2  0
  4  5  1  0
  4  6  1  0
  6  7  2  0
  7  8  1  0
  8  9  2  0
  9 10  1  0
 10 11  1  0
 11 12  1  0
 12 13  1  0
 13 14  1  0
 14 15  1  1
 15 16  2  0
 16 17  1  0
 17 18  1  0
 18 19  2  0
 19 20  1  0
 20 21  1  0
 21 22  1  0
 21 23  1  0
 21 24  1  0
 20 25  2  0
 25 26  1  0
 26 27  2  0
 27 28  1  0
 17 29  2  0
 29 30  1  0
 30 31  1  0
 31 32  1  0
 32 33  1  0
 33 34  1  0
 34 35  1  0
 35 36  1  0
 36 37  1  0
 36 38  1  0
 38 39  1  0
 14 40  1  0
  9  3  1  0
 40 10  1  0
 30 15  1  0
 39 33  1  0
 27 18  1  0
M  ISO  1  37  18
M  END

