
     RDKit          2D

 36 39  0  0  0  0  0  0  0  0999 V2000
    4.8308   -6.3240    0.0000 C   0  0  0  0  0  0  0  0  0  0  0  0
    4.6740   -4.8322    0.0000 N   0  0  0  0  0  0  0  0  0  0  0  0
    5.8875   -3.9505    0.0000 C   0  0  0  0  0  0  0  0  0  0  0  0
    3.3037   -4.2221    0.0000 N   0  0  0  0  0  0  0  0  0  0  0  0
    2.9918   -2.7549    0.0000 N   0  0  0  0  0  0  0  0  0  0  0  0
    1.5000   -2.5981    0.0000 C   0  0  0  0  0  0  0  0  0  0  0  0
    0.7500   -1.2990    0.0000 N   0  0  0  0  0  0  0  0  0  0  0  0
    1.5000    0.0000    0.0000 C   0  0  0  0  0  0  0  0  0  0  0  0
    0.7500    1.2990    0.0000 C   0  0  0  0  0  0  0  0  0  0  0  0
   -0.7500    1.2990    0.0000 C   0  0  0  0  0  0  0  0  0  0  0  0
   -1.5000    2.5981    0.0000 C   0  0  0  0  0  0  0  0  0  0  0  0
   -3.0000    2.5981    0.0000 O   0  0  0  0  0  0  0  0  0  0  0  0
   -0.7500    3.8971    0.0000 C   0  0  0  0  0  0  0  0  0  0  0  0
    0.7500    3.8971    0.0000 O   0  0  0  0  0  0  0  0  0  0  0  0
   -1.5000    5.1962    0.0000 C   0  0  0  0  0  0  0  0  0  0  0  0
   -0.7500    6.4952    0.0000 O   0  0  0  0  0  0  0  0  0  0  0  0
   -1.5000    0.0000    0.0000 C   0  0  0  0  0  0  0  0  0  0  0  0
   -0.7500   -1.2990    0.0000 C   0  0  0  0  0  0  0  0  0  0  0  0
    0.8899   -3.9684    0.0000 N   0  0  0  0  0  0  0  0  0  0  0  0
    2.0046   -4.9721    0.0000 C   0  0  0  0  0  0  0  0  0  0  0  0
    1.8478   -6.4639    0.0000 C   0  0  0  0  0  0  0  0  0  0  0  0
    0.4775   -7.0740    0.0000 C   0  0  0  0  0  0  0  0  0  0  0  0
    0.3207   -8.5658    0.0000 N   0  0  0  0  0  0  0  0  0  0  0  0
    1.5342   -9.4474    0.0000 C   0  0  0  0  0  0  0  0  0  0  0  0
    1.3774  -10.9392    0.0000 N   0  0  0  0  0  0  0  0  0  0  0  0
    2.9046   -8.8373    0.0000 C   0  0  0  0  0  0  0  0  0  0  0  0
    4.1181   -9.7190    0.0000 C   0  0  0  0  0  0  0  0  0  0  0  0
    5.5447   -9.2555    0.0000 N   0  0  0  0  0  0  0  0  0  0  0  0
    6.4263  -10.4690    0.0000 N   0  0  0  0  0  0  0  0  0  0  0  0
    5.5447  -11.6825    0.0000 C   0  0  0  0  0  0  0  0  0  0  0  0
    6.0082  -13.1091    0.0000 C   0  0  0  0  0  0  0  0  0  0  0  0
    7.4348  -12.6456    0.0000 C   0  0  0  0  0  0  0  0  0  0  0  0
    4.5816  -13.5726    0.0000 C   0  0  0  0  0  0  0  0  0  0  0  0
    6.4717  -14.5357    0.0000 N   0  0  0  0  0  0  0  0  0  0  0  0
    4.1181  -11.2190    0.0000 O   0  0  0  0  0  0  0  0  0  0  0  0
    3.0613   -7.3456    0.0000 N   0  0  0  0  0  0  0  0  0  0  0  0
  1  2  1  0
  2  3  1  0
  2  4  1  0
  4  5  1  0
  5  6  2  0
  6  7  1  0
  7  8  1  0
  8  9  1  0
  9 10  1  0
 10 11  1  0
 11 12  2  0
 11 13  1  0
 13 14  1  6
 13 15  1  0
 15 16  1  0
 10 17  1  0
 17 18  1  0
  6 19  1  0
 19 20  2  0
 20 21  1  0
 21 22  2  0
 22 23  1  0
 23 24  2  0
 24 25  1  0
 24 26  1  0
 26 27  1  0
 27 28  2  0
 28 29  1  0
 29 30  2  0
 30 31  1  0
 31 32  1  0
 31 33  1  0
 31 34  1  0
 30 35  1  0
 26 36  2  0
 20  4  1  0
 36 21  1  0
 18  7  1  0
 35 27  1  0
M  END

