
     RDKit          2D

 32 36  0  0  0  0  0  0  0  0999 V2000
    5.6609    0.6528    0.0000 C   0  0  0  0  0  0  0  0  0  0  0  0
    4.8221   -0.5908    0.0000 C   0  0  0  0  0  0  0  0  0  0  0  0
    3.3230   -0.6432    0.0000 N   0  0  0  0  0  0  0  0  0  0  0  0
    2.9095   -2.0850    0.0000 C   0  0  0  0  0  0  0  0  0  0  0  0
    1.5000   -2.5981    0.0000 C   0  0  0  0  0  0  0  0  0  0  0  0
    0.7500   -1.2990    0.0000 C   0  0  0  0  0  0  0  0  0  0  0  0
    1.5000    0.0000    0.0000 C   0  0  0  0  0  0  0  0  0  0  0  0
    0.7500    1.2990    0.0000 C   0  0  0  0  0  0  0  0  0  0  0  0
   -0.7500    1.2990    0.0000 C   0  0  0  0  0  0  0  0  0  0  0  0
   -1.5000    0.0000    0.0000 C   0  0  0  0  0  0  0  0  0  0  0  0
   -0.7500   -1.2990    0.0000 C   0  0  0  0  0  0  0  0  0  0  0  0
    1.7605   -4.0753    0.0000 C   0  0  0  0  0  0  0  0  0  0  0  0
    0.3509   -3.5623    0.0000 C   0  0  0  0  0  0  0  0  0  0  0  0
    4.1531   -2.9238    0.0000 N   0  0  0  0  0  0  0  0  0  0  0  0
    5.3351   -2.0003    0.0000 N   0  0  0  0  0  0  0  0  0  0  0  0
    6.7770   -2.4138    0.0000 C   0  0  0  0  0  0  0  0  0  0  0  0
    7.9590   -1.4903    0.0000 N   0  0  0  0  0  0  0  0  0  0  0  0
    9.2026   -2.3291    0.0000 N   0  0  0  0  0  0  0  0  0  0  0  0
   10.6121   -1.8161    0.0000 I   0  0  0  0  0  0  0  0  0  0  0  0
    8.7891   -3.7710    0.0000 C   0  0  0  0  0  0  0  0  0  0  0  0
    9.7126   -4.9530    0.0000 C   0  0  0  0  0  0  0  0  0  0  0  0
   11.2117   -4.9007    0.0000 C   0  0  0  0  0  0  0  0  0  0  0  0
   11.7247   -6.3102    0.0000 N   0  0  0  0  0  0  0  0  0  0  0  0
   13.1666   -6.7237    0.0000 S   0  0  0  0  0  0  0  0  0  0  0  0
   13.5801   -5.2818    0.0000 O   0  0  0  0  0  0  0  0  0  0  0  0
   12.7532   -8.1655    0.0000 O   0  0  0  0  0  0  0  0  0  0  0  0
   14.6085   -7.1371    0.0000 N   0  0  0  0  0  0  0  0  0  0  0  0
   15.6875   -6.0951    0.0000 C   0  0  0  0  0  0  0  0  0  0  0  0
   14.9714   -8.5926    0.0000 C   0  0  0  0  0  0  0  0  0  0  0  0
   10.5427   -7.2337    0.0000 N   0  0  0  0  0  0  0  0  0  0  0  0
    9.2992   -6.3949    0.0000 C   0  0  0  0  0  0  0  0  0  0  0  0
    7.2900   -3.8233    0.0000 N   0  0  0  0  0  0  0  0  0  0  0  0
  1  2  1  0
  2  3  2  0
  3  4  1  0
  4  5  1  0
  5  6  1  0
  6  7  2  0
  7  8  1  0
  8  9  2  0
  9 10  1  0
 10 11  2  0
  5 12  1  0
 12 13  1  0
  4 14  2  0
 14 15  1  0
 15 16  1  0
 16 17  2  0
 17 18  1  0
 18 19  1  0
 18 20  1  0
 20 21  1  0
 21 22  2  0
 22 23  1  0
 23 24  1  0
 24 25  2  0
 24 26  2  0
 24 27  1  0
 27 28  1  0
 27 29  1  0
 23 30  1  0
 30 31  2  0
 20 32  2  0
 15  2  1  0
 32 16  1  0
 13  5  1  0
 31 21  1  0
 11  6  1  0
M  END

