
     RDKit          2D

 36 40  0  0  0  0  0  0  0  0999 V2000
   -9.1957    9.7056    0.0000 C   0  0  0  0  0  0  0  0  0  0  0  0
   -9.5075    8.2384    0.0000 N   0  0  0  0  0  0  0  0  0  0  0  0
  -10.9341    7.7749    0.0000 C   0  0  0  0  0  0  0  0  0  0  0  0
   -8.3928    7.2347    0.0000 C   0  0  0  0  0  0  0  0  0  0  0  0
   -8.7047    5.7675    0.0000 C   0  0  0  0  0  0  0  0  0  0  0  0
  -10.1313    5.3039    0.0000 O   0  0  0  0  0  0  0  0  0  0  0  0
   -7.5900    4.7638    0.0000 N   0  0  0  0  0  0  0  0  0  0  0  0
   -6.1634    5.2273    0.0000 C   0  0  0  0  0  0  0  0  0  0  0  0
   -5.0487    4.2236    0.0000 C   0  0  0  0  0  0  0  0  0  0  0  0
   -5.3605    2.7564    0.0000 C   0  0  0  0  0  0  0  0  0  0  0  0
   -4.2458    1.7527    0.0000 C   0  0  0  0  0  0  0  0  0  0  0  0
   -4.5577    0.2855    0.0000 N   0  0  0  0  0  0  0  0  0  0  0  0
   -3.4430   -0.7182    0.0000 C   0  0  0  0  0  0  0  0  0  0  0  0
   -3.7548   -2.1855    0.0000 C   0  0  0  0  0  0  0  0  0  0  0  0
   -5.1814   -2.6490    0.0000 N   0  0  0  0  0  0  0  0  0  0  0  0
   -5.4933   -4.1162    0.0000 C   0  0  0  0  0  0  0  0  0  0  0  0
   -6.9199   -4.5797    0.0000 N   0  0  0  0  0  0  0  0  0  0  0  0
   -4.3786   -5.1199    0.0000 C   0  0  0  0  0  0  0  0  0  0  0  0
   -2.9520   -4.6564    0.0000 N   0  0  0  0  0  0  0  0  0  0  0  0
   -2.6401   -3.1891    0.0000 C   0  0  0  0  0  0  0  0  0  0  0  0
   -1.2135   -2.7256    0.0000 N   0  0  0  0  0  0  0  0  0  0  0  0
   -0.7500   -1.2990    0.0000 N   0  0  0  0  0  0  0  0  0  0  0  0
    0.7500   -1.2990    0.0000 N   0  0  0  0  0  0  0  0  0  0  0  0
    1.2135   -2.7256    0.0000 C   0  0  0  0  0  0  0  0  0  0  0  0
    2.5838   -3.3357    0.0000 C   0  0  0  0  0  0  0  0  0  0  0  0
    2.7406   -4.8275    0.0000 C   0  0  0  0  0  0  0  0  0  0  0  0
    1.5271   -5.7092    0.0000 C   0  0  0  0  0  0  0  0  0  0  0  0
    0.1568   -5.0991    0.0000 C   0  0  0  0  0  0  0  0  0  0  0  0
   -0.0000   -3.6073    0.0000 C   0  0  0  0  0  0  0  0  0  0  0  0
   -2.0164   -0.2547    0.0000 N   0  0  0  0  0  0  0  0  0  0  0  0
   -1.7045    1.2125    0.0000 C   0  0  0  0  0  0  0  0  0  0  0  0
   -0.2779    1.6760    0.0000 C   0  0  0  0  0  0  0  0  0  0  0  0
    0.0339    3.1433    0.0000 N   0  0  0  0  0  0  0  0  0  0  0  0
   -2.8192    2.2162    0.0000 N   0  0  0  0  0  0  0  0  0  0  0  0
   -6.7871    2.2929    0.0000 C   0  0  0  0  0  0  0  0  0  0  0  0
   -7.9018    3.2966    0.0000 C   0  0  0  0  0  0  0  0  0  0  0  0
  1  2  1  0
  2  3  1  0
  2  4  1  0
  4  5  1  0
  5  6  2  0
  5  7  1  0
  7  8  1  0
  8  9  1  0
  9 10  1  0
 10 11  1  0
 11 12  2  0
 12 13  1  0
 13 14  1  0
 14 15  2  0
 15 16  1  0
 16 17  1  0
 16 18  2  0
 18 19  1  0
 19 20  2  0
 20 21  1  0
 21 22  1  0
 22 23  2  0
 23 24  1  0
 24 25  2  0
 25 26  1  0
 26 27  2  0
 27 28  1  0
 28 29  2  0
 13 30  2  0
 30 31  1  0
 31 32  1  0
 32 33  1  0
 31 34  2  0
 10 35  1  0
 35 36  1  0
 36  7  1  0
 34 11  1  0
 20 14  1  0
 29 21  1  0
 29 24  1  0
M  END

