
     RDKit          2D

 46 50  0  0  0  0  0  0  0  0999 V2000
    1.8244   -7.7724    0.0000 N   0  0  0  0  0  0  0  0  0  0  0  0
    1.9365   -6.2766    0.0000 C   0  0  0  0  0  0  0  0  0  0  0  0
    3.2879   -5.6257    0.0000 N   0  0  0  0  0  0  0  0  0  0  0  0
   -1.7816   -3.7416    0.0000 C   0  0  0  0  0  0  0  0  0  0  0  0
   -1.8937   -5.2374    0.0000 C   0  0  0  0  0  0  0  0  0  0  0  0
   -0.6543   -6.0824    0.0000 C   0  0  0  0  0  0  0  0  0  0  0  0
    0.6971   -5.4316    0.0000 C   0  0  0  0  0  0  0  0  0  0  0  0
    0.8092   -3.9358    0.0000 N   0  0  0  0  0  0  0  0  0  0  0  0
   -0.4301   -3.0908    0.0000 C   0  0  0  0  0  0  0  0  0  0  0  0
   -2.9088   -1.4008    0.0000 C   0  0  0  0  0  0  0  0  0  0  0  0
   -4.1482   -0.5558    0.0000 N   0  0  0  0  0  0  0  0  0  0  0  0
   -5.4997   -1.2067    0.0000 C   0  0  0  0  0  0  0  0  0  0  0  0
   -5.6118   -2.7025    0.0000 N   0  0  0  0  0  0  0  0  0  0  0  0
   -4.3724   -3.5475    0.0000 C   0  0  0  0  0  0  0  0  0  0  0  0
   -3.0209   -2.8966    0.0000 C   0  0  0  0  0  0  0  0  0  0  0  0
   -4.4845   -5.0433    0.0000 N   0  0  0  0  0  0  0  0  0  0  0  0
    1.0777    1.3515    0.0000 N   0  0  0  0  0  0  0  0  0  0  0  0
    1.7286    0.0000    0.0000 C   0  0  0  0  0  0  0  0  0  0  0  0
    1.0777   -1.3515    0.0000 C   0  0  0  0  0  0  0  0  0  0  0  0
   -0.3846   -1.6852    0.0000 C   0  0  0  0  0  0  0  0  0  0  0  0
   -1.5574   -0.7500    0.0000 N   0  0  0  0  0  0  0  0  0  0  0  0
   -1.5574    0.7500    0.0000 C   0  0  0  0  0  0  0  0  0  0  0  0
   -0.3846    1.6852    0.0000 C   0  0  0  0  0  0  0  0  0  0  0  0
    3.5115    2.4569    0.0000 N   0  0  0  0  0  0  0  0  0  0  0  0
    4.0385    3.8613    0.0000 C   0  0  0  0  0  0  0  0  0  0  0  0
    2.8658    4.7965    0.0000 C   0  0  0  0  0  0  0  0  0  0  0  0
    1.6139    3.9701    0.0000 N   0  0  0  0  0  0  0  0  0  0  0  0
    2.0130    2.5242    0.0000 C   0  0  0  0  0  0  0  0  0  0  0  0
    1.7363    8.6010    0.0000 C   0  0  0  0  0  0  0  0  0  0  0  0
    3.0677    9.2920    0.0000 C   0  0  0  0  0  0  0  0  0  0  0  0
    4.3318    8.4844    0.0000 C   0  0  0  0  0  0  0  0  0  0  0  0
    4.2645    6.9859    0.0000 C   0  0  0  0  0  0  0  0  0  0  0  0
    2.9331    6.2950    0.0000 C   0  0  0  0  0  0  0  0  0  0  0  0
    1.6690    7.1025    0.0000 C   0  0  0  0  0  0  0  0  0  0  0  0
    8.1913    7.5603    0.0000 F   0  0  0  0  0  0  0  0  0  0  0  0
    6.8599    6.8694    0.0000 C   0  0  0  0  0  0  0  0  0  0  0  0
    7.5509    5.5380    0.0000 F   0  0  0  0  0  0  0  0  0  0  0  0
    6.1690    8.2008    0.0000 F   0  0  0  0  0  0  0  0  0  0  0  0
    5.5285    6.1784    0.0000 O   0  0  0  0  0  0  0  0  0  0  0  0
    0.4722    9.4085    0.0000 F   0  0  0  0  0  0  0  0  0  0  0  0
    8.1588    0.1326    0.0000 C   0  0  0  0  0  0  0  0  0  0  0  0
    6.6615    0.0429    0.0000 C   0  0  0  0  0  0  0  0  0  0  0  0
    5.8351    1.2947    0.0000 N   0  0  0  0  0  0  0  0  0  0  0  0
    4.3378    1.2050    0.0000 C   0  0  0  0  0  0  0  0  0  0  0  0
    6.5061    2.6363    0.0000 C   0  0  0  0  0  0  0  0  0  0  0  0
    8.0034    2.7260    0.0000 C   0  0  0  0  0  0  0  0  0  0  0  0
  1  2  2  0
  2  3  1  0
  4  5  2  0
  5  6  1  0
  6  7  2  0
  7  8  1  0
  8  9  2  0
  9  4  1  0
 10 11  2  0
 11 12  1  0
 12 13  2  0
 13 14  1  0
 14 15  2  0
 15 10  1  0
 17 18  1  0
 18 19  1  0
 19 20  1  0
 20 21  1  0
 21 22  1  0
 22 23  1  0
 23 17  1  0
 24 25  1  0
 25 26  2  0
 26 27  1  0
 27 28  2  0
 28 24  1  0
 29 30  2  0
 30 31  1  0
 31 32  2  0
 32 33  1  0
 33 34  2  0
 34 29  1  0
 35 36  1  0
 36 37  1  0
 36 38  1  0
 36 39  1  0
 41 42  1  0
 42 43  1  0
 43 44  1  0
 43 45  1  0
 45 46  1  0
  2  7  1  0
  4 15  1  0
 14 16  1  0
 10 21  1  0
 17 28  1  0
 26 33  1  0
 32 39  1  0
 29 40  1  0
 24 44  1  0
M  END

