
     RDKit          2D

 37 42  0  0  0  0  0  0  0  0999 V2000
   -0.6470  -11.8026    0.0000 C   0  0  0  0  0  0  0  0  0  0  0  0
   -0.4902  -10.3108    0.0000 C   0  0  0  0  0  0  0  0  0  0  0  0
   -1.7037   -9.4291    0.0000 C   0  0  0  0  0  0  0  0  0  0  0  0
   -3.0740  -10.0392    0.0000 C   0  0  0  0  0  0  0  0  0  0  0  0
   -3.2308  -11.5310    0.0000 N   0  0  0  0  0  0  0  0  0  0  0  0
   -4.2876   -9.1576    0.0000 N   0  0  0  0  0  0  0  0  0  0  0  0
   -4.1308   -7.6658    0.0000 C   0  0  0  0  0  0  0  0  0  0  0  0
   -2.7604   -7.0557    0.0000 N   0  0  0  0  0  0  0  0  0  0  0  0
   -1.5469   -7.9373    0.0000 C   0  0  0  0  0  0  0  0  0  0  0  0
   -0.1766   -7.3272    0.0000 N   0  0  0  0  0  0  0  0  0  0  0  0
    1.0369   -8.2089    0.0000 C   0  0  0  0  0  0  0  0  0  0  0  0
    2.4072   -7.5988    0.0000 C   0  0  0  0  0  0  0  0  0  0  0  0
    2.5640   -6.1070    0.0000 C   0  0  0  0  0  0  0  0  0  0  0  0
    3.9343   -5.4969    0.0000 C   0  0  0  0  0  0  0  0  0  0  0  0
    5.1479   -6.3786    0.0000 C   0  0  0  0  0  0  0  0  0  0  0  0
    6.5182   -5.7685    0.0000 C   0  0  0  0  0  0  0  0  0  0  0  0
    7.7317   -6.6502    0.0000 C   0  0  0  0  0  0  0  0  0  0  0  0
    7.5749   -8.1420    0.0000 C   0  0  0  0  0  0  0  0  0  0  0  0
    8.7885   -9.0236    0.0000 C   0  0  0  0  0  0  0  0  0  0  0  0
   10.1588   -8.4135    0.0000 C   0  0  0  0  0  0  0  0  0  0  0  0
   11.3723   -9.2952    0.0000 F   0  0  0  0  0  0  0  0  0  0  0  0
   10.3156   -6.9217    0.0000 C   0  0  0  0  0  0  0  0  0  0  0  0
    9.1020   -6.0401    0.0000 C   0  0  0  0  0  0  0  0  0  0  0  0
    6.6750   -4.2767    0.0000 C   0  0  0  0  0  0  0  0  0  0  0  0
    5.4615   -3.3950    0.0000 C   0  0  0  0  0  0  0  0  0  0  0  0
    4.0911   -4.0051    0.0000 C   0  0  0  0  0  0  0  0  0  0  0  0
    2.8776   -3.1235    0.0000 C   0  0  0  0  0  0  0  0  0  0  0  0
    3.0344   -1.6317    0.0000 C   0  0  0  0  0  0  0  0  0  0  0  0
    1.8209   -0.7500    0.0000 N   0  0  0  0  0  0  0  0  0  0  0  0
    1.8209    0.7500    0.0000 C   0  0  0  0  0  0  0  0  0  0  0  0
    0.3943    1.2135    0.0000 C   0  0  0  0  0  0  0  0  0  0  0  0
    1.2760    0.0000    0.0000 C   0  0  0  0  0  0  0  0  0  0  0  0
    0.3943   -1.2135    0.0000 C   0  0  0  0  0  0  0  0  0  0  0  0
   -1.0323   -0.7500    0.0000 C   0  0  0  0  0  0  0  0  0  0  0  0
   -1.0323    0.7500    0.0000 O   0  0  0  0  0  0  0  0  0  0  0  0
    1.3505   -5.2253    0.0000 C   0  0  0  0  0  0  0  0  0  0  0  0
   -0.0198   -5.8355    0.0000 C   0  0  0  0  0  0  0  0  0  0  0  0
  1  2  1  0
  2  3  1  0
  3  4  2  0
  4  5  1  0
  4  6  1  0
  6  7  2  0
  7  8  1  0
  8  9  2  0
  9 10  1  0
 10 11  1  0
 11 12  1  0
 12 13  1  0
 13 14  1  0
 14 15  2  0
 15 16  1  0
 16 17  1  0
 17 18  2  0
 18 19  1  0
 19 20  2  0
 20 21  1  0
 20 22  1  0
 22 23  2  0
 16 24  2  0
 24 25  1  0
 25 26  2  0
 26 27  1  0
 27 28  1  0
 28 29  1  0
 29 30  1  0
 31 30  1  1
 31 32  1  0
 32 33  1  0
 33 34  1  1
 34 35  1  0
 13 36  1  0
 36 37  1  0
  9  3  1  0
 37 10  1  0
 26 14  1  0
 33 29  1  0
 23 17  1  0
 35 31  1  0
M  END

