
     RDKit          2D

 29 32  0  0  0  0  0  0  0  0999 V2000
    3.0000    0.0000    0.0000 C   0  0  0  0  0  0  0  0  0  0  0  0
    1.5000    0.0000    0.0000 C   0  0  0  0  0  0  0  0  0  0  0  0
    0.7500   -1.2990    0.0000 C   0  0  0  0  0  0  0  0  0  0  0  0
   -0.7500   -1.2990    0.0000 C   0  0  0  0  0  0  0  0  0  0  0  0
   -1.5000    0.0000    0.0000 C   0  0  0  0  0  0  0  0  0  0  0  0
   -0.7500    1.2990    0.0000 C   0  0  0  0  0  0  0  0  0  0  0  0
    0.7500    1.2990    0.0000 N   0  0  0  0  0  0  0  0  0  0  0  0
   -2.9672   -0.3119    0.0000 N   0  0  0  0  0  0  0  0  0  0  0  0
   -3.1240   -1.8037    0.0000 N   0  0  0  0  0  0  0  0  0  0  0  0
   -1.7537   -2.4138    0.0000 C   0  0  0  0  0  0  0  0  0  0  0  0
   -1.4418   -3.8810    0.0000 C   0  0  0  0  0  0  0  0  0  0  0  0
   -2.5565   -4.8847    0.0000 C   0  0  0  0  0  0  0  0  0  0  0  0
   -2.2447   -6.3519    0.0000 N   0  0  0  0  0  0  0  0  0  0  0  0
   -0.8181   -6.8154    0.0000 C   0  0  0  0  0  0  0  0  0  0  0  0
    0.2966   -5.8117    0.0000 C   0  0  0  0  0  0  0  0  0  0  0  0
    1.7232   -6.2752    0.0000 C   0  0  0  0  0  0  0  0  0  0  0  0
    2.0351   -7.7425    0.0000 C   0  0  0  0  0  0  0  0  0  0  0  0
    3.4617   -8.2060    0.0000 C   0  0  0  0  0  0  0  0  0  0  0  0
    3.7735   -9.6732    0.0000 C   0  0  0  0  0  0  0  0  0  0  0  0
    5.2001  -10.1367    0.0000 C   0  0  0  0  0  0  0  0  0  0  0  0
    5.5120  -11.6040    0.0000 C   0  0  0  0  0  0  0  0  0  0  0  0
    4.3973  -12.6077    0.0000 C   0  0  0  0  0  0  0  0  0  0  0  0
    4.7091  -14.0749    0.0000 C   0  0  0  0  0  0  0  0  0  0  0  0
    6.1357  -14.5384    0.0000 C   0  0  0  0  0  0  0  0  0  0  0  0
    6.4476  -16.0056    0.0000 F   0  0  0  0  0  0  0  0  0  0  0  0
    7.2504  -13.5347    0.0000 C   0  0  0  0  0  0  0  0  0  0  0  0
    8.6770  -13.9982    0.0000 C   0  0  0  0  0  0  0  0  0  0  0  0
    6.9386  -12.0675    0.0000 C   0  0  0  0  0  0  0  0  0  0  0  0
   -0.0152   -4.3445    0.0000 C   0  0  0  0  0  0  0  0  0  0  0  0
  1  2  1  0
  2  3  2  0
  3  4  1  0
  4  5  2  0
  5  6  1  0
  6  7  2  0
  5  8  1  0
  8  9  1  0
  9 10  2  0
 10 11  1  0
 11 12  2  0
 12 13  1  0
 13 14  2  0
 14 15  1  0
 15 16  1  0
 16 17  1  0
 17 18  1  0
 18 19  1  0
 19 20  1  0
 20 21  1  0
 21 22  2  0
 22 23  1  0
 23 24  2  0
 24 25  1  0
 24 26  1  0
 26 27  1  0
 26 28  2  0
 15 29  2  0
  7  2  1  0
 29 11  1  0
 10  4  1  0
 28 21  1  0
M  ISO  1  25  18
M  END

