
     RDKit          2D

 30 32  0  0  0  0  0  0  0  0999 V2000
    3.0000    1.5000    0.0000 C   0  0  0  0  0  0  0  0  0  0  0  0
    3.0000    0.0000    0.0000 C   0  0  0  0  0  0  0  0  0  0  0  0
    3.0000   -1.5000    0.0000 C   0  0  0  0  0  0  0  0  0  0  0  0
    1.5000    0.0000    0.0000 C   0  0  0  0  0  0  0  0  0  0  0  0
    0.7500   -1.2990    0.0000 C   0  0  0  0  0  0  0  0  0  0  0  0
   -0.7500   -1.2990    0.0000 C   0  0  0  0  0  0  0  0  0  0  0  0
   -1.5000   -2.5981    0.0000 C   0  0  0  0  0  0  0  0  0  0  0  0
   -0.8899   -3.9684    0.0000 C   0  0  0  0  0  0  0  0  0  0  0  0
   -2.0046   -4.9721    0.0000 N   0  0  0  0  0  0  0  0  0  0  0  0
   -3.3037   -4.2221    0.0000 C   0  0  0  0  0  0  0  0  0  0  0  0
   -4.6740   -4.8322    0.0000 N   0  0  0  0  0  0  0  0  0  0  0  0
   -5.8875   -3.9505    0.0000 C   0  0  0  0  0  0  0  0  0  0  0  0
   -5.7307   -2.4587    0.0000 O   0  0  0  0  0  0  0  0  0  0  0  0
   -7.2578   -4.5606    0.0000 N   0  0  0  0  0  0  0  0  0  0  0  0
   -7.5697   -6.0278    0.0000 C   0  0  0  0  0  0  0  0  0  0  0  0
   -9.0615   -6.1846    0.0000 C   0  0  0  0  0  0  0  0  0  0  0  0
   -9.6716   -4.8143    0.0000 C   0  0  0  0  0  0  0  0  0  0  0  0
   -8.5569   -3.8106    0.0000 C   0  0  0  0  0  0  0  0  0  0  0  0
   -8.7136   -2.3188    0.0000 C   0  0  0  0  0  0  0  0  0  0  0  0
  -10.0840   -1.7087    0.0000 C   0  0  0  0  0  0  0  0  0  0  0  0
  -10.2408   -0.2170    0.0000 N   0  0  0  0  0  0  0  0  0  0  0  0
  -11.2975   -2.5904    0.0000 O   0  0  0  0  0  0  0  0  0  0  0  0
   -2.9918   -2.7549    0.0000 S   0  0  0  0  0  0  0  0  0  0  0  0
   -1.5000    0.0000    0.0000 C   0  0  0  0  0  0  0  0  0  0  0  0
   -0.7500    1.2990    0.0000 C   0  0  0  0  0  0  0  0  0  0  0  0
    0.7500    1.2990    0.0000 N   0  0  0  0  0  0  0  0  0  0  0  0
    4.5000    0.0000    0.0000 C   0  0  0  0  0  0  0  0  0  0  0  0
    6.0000    0.0000    0.0000 F   0  0  0  0  0  0  0  0  0  0  0  0
    4.5000    1.5000    0.0000 F   0  0  0  0  0  0  0  0  0  0  0  0
    4.5000   -1.5000    0.0000 F   0  0  0  0  0  0  0  0  0  0  0  0
  1  2  1  0
  2  3  1  0
  2  4  1  0
  4  5  2  0
  5  6  1  0
  6  7  1  0
  7  8  2  0
  8  9  1  0
  9 10  2  0
 10 11  1  0
 11 12  1  0
 12 13  2  0
 12 14  1  0
 14 15  1  0
 15 16  1  0
 16 17  1  0
 17 18  1  0
 18 19  1  1
 19 20  1  0
 20 21  1  0
 20 22  2  0
 10 23  1  0
  6 24  2  0
 24 25  1  0
 25 26  2  0
  2 27  1  0
 27 28  1  0
 27 29  1  0
 27 30  1  0
 26  4  1  0
 23  7  1  0
 18 14  1  0
M  END

