
     RDKit          2D

 29 32  0  0  0  0  0  0  0  0999 V2000
   -2.4345    2.3854    0.0000 C   0  0  0  0  0  0  0  0  0  0  0  0
   -1.5528    1.1719    0.0000 C   0  0  0  0  0  0  0  0  0  0  0  0
   -0.0528    1.1719    0.0000 C   0  0  0  0  0  0  0  0  0  0  0  0
    0.4107   -0.2547    0.0000 C   0  0  0  0  0  0  0  0  0  0  0  0
    1.7810   -0.8648    0.0000 C   0  0  0  0  0  0  0  0  0  0  0  0
    2.9945    0.0169    0.0000 Br  0  0  0  0  0  0  0  0  0  0  0  0
    1.9378   -2.3566    0.0000 C   0  0  0  0  0  0  0  0  0  0  0  0
    0.7243   -3.2383    0.0000 C   0  0  0  0  0  0  0  0  0  0  0  0
   -0.6461   -2.6282    0.0000 C   0  0  0  0  0  0  0  0  0  0  0  0
   -0.8028   -1.1364    0.0000 C   0  0  0  0  0  0  0  0  0  0  0  0
   -2.0164   -0.2547    0.0000 N   0  0  0  0  0  0  0  0  0  0  0  0
   -3.4430   -0.7182    0.0000 C   0  0  0  0  0  0  0  0  0  0  0  0
   -4.5577    0.2855    0.0000 O   0  0  0  0  0  0  0  0  0  0  0  0
   -3.7548   -2.1855    0.0000 C   0  0  0  0  0  0  0  0  0  0  0  0
   -5.1814   -2.6490    0.0000 C   0  0  0  0  0  0  0  0  0  0  0  0
   -6.2961   -1.6453    0.0000 C   0  0  0  0  0  0  0  0  0  0  0  0
   -7.7227   -2.1088    0.0000 N   0  0  0  0  0  0  0  0  0  0  0  0
   -8.0346   -3.5760    0.0000 C   0  0  0  0  0  0  0  0  0  0  0  0
   -9.4612   -4.0396    0.0000 N   0  0  0  0  0  0  0  0  0  0  0  0
  -10.5759   -3.0359    0.0000 C   0  0  0  0  0  0  0  0  0  0  0  0
  -12.0025   -3.4994    0.0000 C   0  0  0  0  0  0  0  0  0  0  0  0
  -12.3143   -4.9666    0.0000 O   0  0  0  0  0  0  0  0  0  0  0  0
  -11.1996   -5.9703    0.0000 C   0  0  0  0  0  0  0  0  0  0  0  0
   -9.7730   -5.5068    0.0000 C   0  0  0  0  0  0  0  0  0  0  0  0
   -6.9199   -4.5797    0.0000 C   0  0  0  0  0  0  0  0  0  0  0  0
   -5.4933   -4.1162    0.0000 C   0  0  0  0  0  0  0  0  0  0  0  0
   -4.3786   -5.1199    0.0000 C   0  0  0  0  0  0  0  0  0  0  0  0
   -2.9520   -4.6564    0.0000 N   0  0  0  0  0  0  0  0  0  0  0  0
   -4.6904   -6.5871    0.0000 N   0  0  0  0  0  0  0  0  0  0  0  0
  1  2  1  0
  2  3  1  0
  3  4  1  0
  4  5  2  0
  5  6  1  0
  5  7  1  0
  7  8  2  0
  8  9  1  0
  9 10  2  0
 10 11  1  0
 11 12  1  0
 12 13  2  0
 12 14  1  0
 14 15  1  0
 15 16  2  0
 16 17  1  0
 17 18  2  0
 18 19  1  0
 19 20  1  0
 20 21  1  0
 21 22  1  0
 22 23  1  0
 23 24  1  0
 18 25  1  0
 25 26  2  0
 26 27  1  0
 27 28  2  0
 27 29  1  0
 11  2  1  0
 26 15  1  0
 10  4  1  0
 24 19  1  0
M  END

