
     RDKit          2D

 43 48  0  0  0  0  0  0  0  0999 V2000
    3.0000    0.0000    0.0000 N   0  0  0  0  0  0  0  0  0  0  0  0
    1.5000    0.0000    0.0000 C   0  0  0  0  0  0  0  0  0  0  0  0
    0.7500   -1.2990    0.0000 N   0  0  0  0  0  0  0  0  0  0  0  0
   -0.7500   -1.2990    0.0000 C   0  0  0  0  0  0  0  0  0  0  0  0
   -1.5000    0.0000    0.0000 N   0  0  0  0  0  0  0  0  0  0  0  0
   -0.7500    1.2990    0.0000 C   0  0  0  0  0  0  0  0  0  0  0  0
   -1.5000    2.5981    0.0000 C   0  0  0  0  0  0  0  0  0  0  0  0
   -0.7500    3.8971    0.0000 C   0  0  0  0  0  0  0  0  0  0  0  0
   -1.5000    5.1962    0.0000 C   0  0  0  0  0  0  0  0  0  0  0  0
   -3.0000    5.1962    0.0000 N   0  0  0  0  0  0  0  0  0  0  0  0
   -3.7500    6.4952    0.0000 N   0  0  0  0  0  0  0  0  0  0  0  0
   -5.2418    6.6520    0.0000 C   0  0  0  0  0  0  0  0  0  0  0  0
   -5.5537    8.1192    0.0000 C   0  0  0  0  0  0  0  0  0  0  0  0
   -6.9240    8.7293    0.0000 C   0  0  0  0  0  0  0  0  0  0  0  0
   -7.0808   10.2211    0.0000 C   0  0  0  0  0  0  0  0  0  0  0  0
   -8.4511   10.8312    0.0000 N   0  0  0  0  0  0  0  0  0  0  0  0
   -9.7501   10.0812    0.0000 C   0  0  0  0  0  0  0  0  0  0  0  0
  -10.8648   11.0849    0.0000 C   0  0  0  0  0  0  0  0  0  0  0  0
  -10.2547   12.4552    0.0000 C   0  0  0  0  0  0  0  0  0  0  0  0
   -8.7629   12.2984    0.0000 C   0  0  0  0  0  0  0  0  0  0  0  0
   -4.2546    8.8692    0.0000 N   0  0  0  0  0  0  0  0  0  0  0  0
   -3.1399    7.8655    0.0000 C   0  0  0  0  0  0  0  0  0  0  0  0
   -1.6727    8.1774    0.0000 C   0  0  0  0  0  0  0  0  0  0  0  0
   -0.6690    7.0627    0.0000 C   0  0  0  0  0  0  0  0  0  0  0  0
    0.7982    7.3745    0.0000 C   0  0  0  0  0  0  0  0  0  0  0  0
    1.8019    6.2598    0.0000 F   0  0  0  0  0  0  0  0  0  0  0  0
    1.2618    8.8011    0.0000 C   0  0  0  0  0  0  0  0  0  0  0  0
    0.2581    9.9158    0.0000 C   0  0  0  0  0  0  0  0  0  0  0  0
   -1.2091    9.6040    0.0000 C   0  0  0  0  0  0  0  0  0  0  0  0
   -2.2128   10.7187    0.0000 C   0  0  0  0  0  0  0  0  0  0  0  0
   -3.2165   11.8334    0.0000 F   0  0  0  0  0  0  0  0  0  0  0  0
   -1.0981   11.7224    0.0000 F   0  0  0  0  0  0  0  0  0  0  0  0
   -3.3276    9.7150    0.0000 F   0  0  0  0  0  0  0  0  0  0  0  0
   -3.7500    3.8971    0.0000 C   0  0  0  0  0  0  0  0  0  0  0  0
   -3.0000    2.5981    0.0000 C   0  0  0  0  0  0  0  0  0  0  0  0
    0.7500    1.2990    0.0000 C   0  0  0  0  0  0  0  0  0  0  0  0
    1.5000    2.5981    0.0000 C   0  0  0  0  0  0  0  0  0  0  0  0
    3.0000    2.5981    0.0000 C   0  0  0  0  0  0  0  0  0  0  0  0
    3.7500    3.8971    0.0000 C   0  0  0  0  0  0  0  0  0  0  0  0
    3.0000    5.1962    0.0000 C   0  0  0  0  0  0  0  0  0  0  0  0
    3.7500    6.4952    0.0000 F   0  0  0  0  0  0  0  0  0  0  0  0
    1.5000    5.1962    0.0000 N   0  0  0  0  0  0  0  0  0  0  0  0
    0.7500    3.8971    0.0000 C   0  0  0  0  0  0  0  0  0  0  0  0
  1  2  1  0
  2  3  2  0
  3  4  1  0
  4  5  2  0
  5  6  1  0
  6  7  1  0
  7  8  1  0
  8  9  1  0
  9 10  1  0
 10 11  1  0
 11 12  1  0
 12 13  2  0
 13 14  1  0
 14 15  1  0
 15 16  1  0
 16 17  1  0
 17 18  1  0
 18 19  1  0
 19 20  1  0
 13 21  1  0
 21 22  2  0
 22 23  1  0
 23 24  2  0
 24 25  1  0
 25 26  1  0
 25 27  2  0
 27 28  1  0
 28 29  2  0
 29 30  1  0
 30 31  1  0
 30 32  1  0
 30 33  1  0
 10 34  1  0
 34 35  1  0
  6 36  2  0
 36 37  1  0
 37 38  2  0
 38 39  1  0
 39 40  2  0
 40 41  1  0
 40 42  1  0
 42 43  2  0
 36  2  1  0
 43 37  1  0
 35  7  1  0
 22 11  1  0
 29 23  1  0
 20 16  1  0
M  ISO  1  41  18
M  END

