
     RDKit          2D

 28 30  0  0  0  0  0  0  0  0999 V2000
    7.7010   -5.8573    0.0000 C   0  0  0  0  0  0  0  0  0  0  0  0
    6.2010   -5.8573    0.0000 O   0  0  0  0  0  0  0  0  0  0  0  0
    5.4510   -7.1563    0.0000 C   0  0  0  0  0  0  0  0  0  0  0  0
    3.9510   -7.1563    0.0000 C   0  0  0  0  0  0  0  0  0  0  0  0
    3.2010   -8.4554    0.0000 N   0  0  0  0  0  0  0  0  0  0  0  0
    3.9510   -9.7544    0.0000 C   0  0  0  0  0  0  0  0  0  0  0  0
    1.7010   -8.4554    0.0000 C   0  0  0  0  0  0  0  0  0  0  0  0
    0.9510   -9.7544    0.0000 C   0  0  0  0  0  0  0  0  0  0  0  0
   -0.5490   -9.7544    0.0000 C   0  0  0  0  0  0  0  0  0  0  0  0
   -1.2990  -11.0535    0.0000 O   0  0  0  0  0  0  0  0  0  0  0  0
   -1.2990   -8.4554    0.0000 N   0  0  0  0  0  0  0  0  0  0  0  0
   -0.5490   -7.1563    0.0000 C   0  0  0  0  0  0  0  0  0  0  0  0
   -1.2990   -5.8573    0.0000 C   0  0  0  0  0  0  0  0  0  0  0  0
   -2.0490   -4.5583    0.0000 C   0  0  0  0  0  0  0  0  0  0  0  0
   -2.5981   -6.6073    0.0000 F   0  0  0  0  0  0  0  0  0  0  0  0
   -0.0000   -5.1073    0.0000 C   0  0  0  0  0  0  0  0  0  0  0  0
    1.2990   -5.8573    0.0000 O   0  0  0  0  0  0  0  0  0  0  0  0
   -0.0000   -3.6073    0.0000 C   0  0  0  0  0  0  0  0  0  0  0  0
    1.2135   -2.7256    0.0000 C   0  0  0  0  0  0  0  0  0  0  0  0
    0.7500   -1.2990    0.0000 C   0  0  0  0  0  0  0  0  0  0  0  0
    1.5000    0.0000    0.0000 C   0  0  0  0  0  0  0  0  0  0  0  0
    0.7500    1.2990    0.0000 C   0  0  0  0  0  0  0  0  0  0  0  0
   -0.7500    1.2990    0.0000 C   0  0  0  0  0  0  0  0  0  0  0  0
   -1.5000    0.0000    0.0000 C   0  0  0  0  0  0  0  0  0  0  0  0
   -0.7500   -1.2990    0.0000 C   0  0  0  0  0  0  0  0  0  0  0  0
   -1.2135   -2.7256    0.0000 N   0  0  0  0  0  0  0  0  0  0  0  0
   -2.6401   -3.1891    0.0000 F   0  0  0  0  0  0  0  0  0  0  0  0
    0.9510   -7.1563    0.0000 N   0  0  0  0  0  0  0  0  0  0  0  0
  1  2  1  0
  2  3  1  0
  3  4  1  0
  4  5  1  0
  5  6  1  0
  5  7  1  0
  7  8  2  0
  8  9  1  0
  9 10  2  0
  9 11  1  0
 11 12  1  0
 12 13  1  0
 13 14  1  0
 13 15  1  0
 13 16  1  0
 16 17  2  0
 18 16  1  1
 18 19  1  0
 19 20  1  0
 20 21  2  0
 21 22  1  0
 22 23  2  0
 23 24  1  0
 24 25  2  0
 25 26  1  0
 26 27  1  0
 12 28  2  0
 28  7  1  0
 26 18  1  0
 25 20  1  0
M  END

