
     RDKit          2D

 30 34  0  0  0  0  0  0  0  0999 V2000
   -6.6625    6.2243    0.0000 N   0  0  0  0  0  0  0  0  0  0  0  0
   -6.0524    4.8539    0.0000 C   0  0  0  0  0  0  0  0  0  0  0  0
   -4.5606    4.6972    0.0000 C   0  0  0  0  0  0  0  0  0  0  0  0
   -3.9505    3.3268    0.0000 C   0  0  0  0  0  0  0  0  0  0  0  0
   -2.4587    3.1700    0.0000 C   0  0  0  0  0  0  0  0  0  0  0  0
   -1.5771    4.3836    0.0000 F   0  0  0  0  0  0  0  0  0  0  0  0
   -1.8486    1.7997    0.0000 F   0  0  0  0  0  0  0  0  0  0  0  0
   -4.8322    2.1133    0.0000 C   0  0  0  0  0  0  0  0  0  0  0  0
   -4.2221    0.7430    0.0000 C   0  0  0  0  0  0  0  0  0  0  0  0
   -2.7549    0.4311    0.0000 N   0  0  0  0  0  0  0  0  0  0  0  0
   -2.5981   -1.0607    0.0000 N   0  0  0  0  0  0  0  0  0  0  0  0
   -1.2990   -1.8107    0.0000 N   0  0  0  0  0  0  0  0  0  0  0  0
   -1.2990   -3.3107    0.0000 C   0  0  0  0  0  0  0  0  0  0  0  0
   -0.0000   -4.0607    0.0000 C   0  0  0  0  0  0  0  0  0  0  0  0
    1.2990   -3.3107    0.0000 O   0  0  0  0  0  0  0  0  0  0  0  0
    1.2990   -1.8107    0.0000 C   0  0  0  0  0  0  0  0  0  0  0  0
   -0.0000   -1.0607    0.0000 C   0  0  0  0  0  0  0  0  0  0  0  0
    1.0607    0.0000    0.0000 C   0  0  0  0  0  0  0  0  0  0  0  0
    0.0000    1.0607    0.0000 C   0  0  0  0  0  0  0  0  0  0  0  0
   -1.0607    0.0000    0.0000 C   0  0  0  0  0  0  0  0  0  0  0  0
   -3.9684   -1.6708    0.0000 C   0  0  0  0  0  0  0  0  0  0  0  0
   -4.2803   -3.1380    0.0000 N   0  0  0  0  0  0  0  0  0  0  0  0
   -5.7068   -3.6015    0.0000 C   0  0  0  0  0  0  0  0  0  0  0  0
   -6.0187   -5.0687    0.0000 C   0  0  0  0  0  0  0  0  0  0  0  0
   -4.9040   -6.0724    0.0000 O   0  0  0  0  0  0  0  0  0  0  0  0
   -3.4774   -5.6089    0.0000 C   0  0  0  0  0  0  0  0  0  0  0  0
   -3.1655   -4.1417    0.0000 C   0  0  0  0  0  0  0  0  0  0  0  0
   -4.9721   -0.5560    0.0000 C   0  0  0  0  0  0  0  0  0  0  0  0
   -6.3240    2.2701    0.0000 C   0  0  0  0  0  0  0  0  0  0  0  0
   -6.9341    3.6404    0.0000 N   0  0  0  0  0  0  0  0  0  0  0  0
  1  2  1  0
  2  3  2  0
  3  4  1  0
  4  5  1  0
  5  6  1  0
  5  7  1  0
  4  8  2  0
  8  9  1  0
  9 10  2  0
 10 11  1  0
 11 12  1  0
 12 13  1  0
 13 14  1  0
 14 15  1  0
 15 16  1  0
 16 17  1  0
 17 18  1  0
 18 19  1  0
 19 20  1  0
 11 21  1  0
 21 22  1  0
 22 23  1  0
 23 24  1  0
 24 25  1  0
 25 26  1  0
 26 27  1  0
 21 28  2  0
  8 29  1  0
 29 30  2  0
 30  2  1  0
 28  9  1  0
 17 12  1  0
 27 22  1  0
 20 17  1  0
M  END

