
     RDKit          2D

 27 30  0  0  0  0  0  0  0  0999 V2000
    2.7760    0.0000    0.0000 C   0  0  0  0  0  0  0  0  0  0  0  0
    1.2760    0.0000    0.0000 C   0  0  0  0  0  0  0  0  0  0  0  0
    0.3943    1.2135    0.0000 C   0  0  0  0  0  0  0  0  0  0  0  0
    0.8578    2.6401    0.0000 C   0  0  0  0  0  0  0  0  0  0  0  0
   -0.0239    3.8536    0.0000 N   0  0  0  0  0  0  0  0  0  0  0  0
    0.8578    5.0672    0.0000 N   0  0  0  0  0  0  0  0  0  0  0  0
    0.3943    6.4937    0.0000 C   0  0  0  0  0  0  0  0  0  0  0  0
   -1.0911    6.2850    0.0000 C   0  0  0  0  0  0  0  0  0  0  0  0
   -2.0146    7.4670    0.0000 N   0  0  0  0  0  0  0  0  0  0  0  0
    0.4466    7.9928    0.0000 C   0  0  0  0  0  0  0  0  0  0  0  0
    1.7187    7.1980    0.0000 C   0  0  0  0  0  0  0  0  0  0  0  0
    2.2844    4.6036    0.0000 C   0  0  0  0  0  0  0  0  0  0  0  0
    2.2844    3.1036    0.0000 C   0  0  0  0  0  0  0  0  0  0  0  0
   -1.0323    0.7500    0.0000 S   0  0  0  0  0  0  0  0  0  0  0  0
   -1.0323   -0.7500    0.0000 C   0  0  0  0  0  0  0  0  0  0  0  0
   -2.2458   -1.6317    0.0000 C   0  0  0  0  0  0  0  0  0  0  0  0
   -2.0890   -3.1235    0.0000 O   0  0  0  0  0  0  0  0  0  0  0  0
   -3.6161   -1.0216    0.0000 N   0  0  0  0  0  0  0  0  0  0  0  0
   -4.8297   -1.9033    0.0000 C   0  0  0  0  0  0  0  0  0  0  0  0
   -4.8297   -3.4033    0.0000 C   0  0  0  0  0  0  0  0  0  0  0  0
   -6.2562   -3.8668    0.0000 C   0  0  0  0  0  0  0  0  0  0  0  0
   -7.1379   -2.6533    0.0000 C   0  0  0  0  0  0  0  0  0  0  0  0
   -6.2562   -1.4397    0.0000 N   0  0  0  0  0  0  0  0  0  0  0  0
   -6.7198   -0.0131    0.0000 C   0  0  0  0  0  0  0  0  0  0  0  0
   -8.1870    0.2987    0.0000 N   0  0  0  0  0  0  0  0  0  0  0  0
   -5.7161    1.1016    0.0000 O   0  0  0  0  0  0  0  0  0  0  0  0
    0.3943   -1.2135    0.0000 N   0  0  0  0  0  0  0  0  0  0  0  0
  1  2  1  0
  2  3  2  0
  3  4  1  0
  4  5  2  0
  5  6  1  0
  6  7  1  0
  7  8  1  0
  8  9  1  0
  7 10  1  0
 10 11  1  0
  6 12  1  0
 12 13  2  0
  3 14  1  0
 14 15  1  0
 15 16  1  0
 16 17  2  0
 16 18  1  0
 19 18  1  1
 19 20  1  0
 20 21  1  0
 21 22  1  0
 22 23  1  0
 23 24  1  0
 24 25  1  0
 24 26  2  0
 15 27  2  0
 27  2  1  0
 13  4  1  0
 23 19  1  0
 11  7  1  0
M  END

