
     RDKit          2D

 35 40  0  0  0  0  0  0  0  0999 V2000
    2.5981   -5.1073    0.0000 N   0  0  0  0  0  0  0  0  0  0  0  0
    1.2990   -5.8573    0.0000 C   0  0  0  0  0  0  0  0  0  0  0  0
    1.2990   -7.3573    0.0000 N   0  0  0  0  0  0  0  0  0  0  0  0
   -0.0000   -8.1073    0.0000 C   0  0  0  0  0  0  0  0  0  0  0  0
   -1.2990   -7.3573    0.0000 C   0  0  0  0  0  0  0  0  0  0  0  0
   -1.2990   -5.8573    0.0000 C   0  0  0  0  0  0  0  0  0  0  0  0
   -0.0000   -5.1073    0.0000 C   0  0  0  0  0  0  0  0  0  0  0  0
   -0.0000   -3.6073    0.0000 C   0  0  0  0  0  0  0  0  0  0  0  0
    1.2135   -2.7256    0.0000 N   0  0  0  0  0  0  0  0  0  0  0  0
    0.7500   -1.2990    0.0000 C   0  0  0  0  0  0  0  0  0  0  0  0
    1.5000    0.0000    0.0000 C   0  0  0  0  0  0  0  0  0  0  0  0
    0.7500    1.2990    0.0000 C   0  0  0  0  0  0  0  0  0  0  0  0
    1.5000    2.5981    0.0000 Br  0  0  0  0  0  0  0  0  0  0  0  0
   -0.7500    1.2990    0.0000 C   0  0  0  0  0  0  0  0  0  0  0  0
   -1.5000    0.0000    0.0000 N   0  0  0  0  0  0  0  0  0  0  0  0
   -0.7500   -1.2990    0.0000 C   0  0  0  0  0  0  0  0  0  0  0  0
   -1.2135   -2.7256    0.0000 N   0  0  0  0  0  0  0  0  0  0  0  0
   -2.6401   -3.1891    0.0000 C   0  0  0  0  0  0  0  0  0  0  0  0
   -3.7548   -2.1855    0.0000 C   0  0  0  0  0  0  0  0  0  0  0  0
   -5.1814   -2.6490    0.0000 C   0  0  0  0  0  0  0  0  0  0  0  0
   -5.4933   -4.1162    0.0000 C   0  0  0  0  0  0  0  0  0  0  0  0
   -6.9199   -4.5797    0.0000 N   0  0  0  0  0  0  0  0  0  0  0  0
   -7.3834   -6.0063    0.0000 C   0  0  0  0  0  0  0  0  0  0  0  0
   -6.5017   -7.2198    0.0000 O   0  0  0  0  0  0  0  0  0  0  0  0
   -8.8834   -6.0063    0.0000 N   0  0  0  0  0  0  0  0  0  0  0  0
   -9.3469   -4.5797    0.0000 C   0  0  0  0  0  0  0  0  0  0  0  0
  -10.7735   -4.1162    0.0000 N   0  0  0  0  0  0  0  0  0  0  0  0
  -11.9870   -4.9979    0.0000 C   0  0  0  0  0  0  0  0  0  0  0  0
  -13.2006   -4.1162    0.0000 C   0  0  0  0  0  0  0  0  0  0  0  0
  -12.7370   -2.6896    0.0000 C   0  0  0  0  0  0  0  0  0  0  0  0
  -11.2370   -2.6896    0.0000 C   0  0  0  0  0  0  0  0  0  0  0  0
   -8.1334   -3.6980    0.0000 C   0  0  0  0  0  0  0  0  0  0  0  0
   -8.1334   -2.1980    0.0000 O   0  0  0  0  0  0  0  0  0  0  0  0
   -4.3786   -5.1199    0.0000 C   0  0  0  0  0  0  0  0  0  0  0  0
   -2.9520   -4.6564    0.0000 C   0  0  0  0  0  0  0  0  0  0  0  0
  1  2  1  0
  2  3  2  0
  3  4  1  0
  4  5  2  0
  5  6  1  0
  6  7  2  0
  7  8  1  0
  8  9  2  0
  9 10  1  0
 10 11  2  0
 11 12  1  0
 12 13  1  0
 12 14  2  0
 14 15  1  0
 15 16  2  0
 16 17  1  0
 17 18  1  0
 18 19  2  0
 19 20  1  0
 20 21  2  0
 21 22  1  0
 22 23  1  0
 23 24  2  0
 23 25  1  0
 25 26  1  0
 26 27  1  0
 27 28  1  0
 28 29  2  0
 29 30  1  0
 30 31  2  0
 26 32  1  0
 32 33  2  0
 21 34  1  0
 34 35  2  0
  7  2  1  0
 17  8  1  0
 35 18  1  0
 16 10  1  0
 32 22  1  0
 31 27  1  0
M  END

