
     RDKit          2D

 28 31  0  0  0  0  0  0  0  0999 V2000
    2.4161    2.8898    0.0000 C   0  0  0  0  0  0  0  0  0  0  0  0
    3.5457    3.8767    0.0000 C   0  0  0  0  0  0  0  0  0  0  0  0
    5.0081    3.5429    0.0000 C   0  0  0  0  0  0  0  0  0  0  0  0
    5.7774    4.8306    0.0000 C   0  0  0  0  0  0  0  0  0  0  0  0
    4.7905    5.9602    0.0000 C   0  0  0  0  0  0  0  0  0  0  0  0
    3.4112    5.3706    0.0000 N   0  0  0  0  0  0  0  0  0  0  0  0
    2.1236    6.1400    0.0000 C   0  0  0  0  0  0  0  0  0  0  0  0
    2.1460    7.6398    0.0000 N   0  0  0  0  0  0  0  0  0  0  0  0
    0.8583    8.4092    0.0000 C   0  0  0  0  0  0  0  0  0  0  0  0
    0.8808    9.9090    0.0000 O   0  0  0  0  0  0  0  0  0  0  0  0
   -0.4518    7.6787    0.0000 N   0  0  0  0  0  0  0  0  0  0  0  0
   -0.4742    6.1789    0.0000 C   0  0  0  0  0  0  0  0  0  0  0  0
   -1.7843    5.4484    0.0000 N   0  0  0  0  0  0  0  0  0  0  0  0
   -3.0720    6.2177    0.0000 C   0  0  0  0  0  0  0  0  0  0  0  0
   -3.0496    7.7176    0.0000 C   0  0  0  0  0  0  0  0  0  0  0  0
   -4.3372    8.4869    0.0000 O   0  0  0  0  0  0  0  0  0  0  0  0
   -1.8068    3.9485    0.0000 C   0  0  0  0  0  0  0  0  0  0  0  0
   -3.1169    3.2181    0.0000 C   0  0  0  0  0  0  0  0  0  0  0  0
   -4.4779    3.8486    0.0000 C   0  0  0  0  0  0  0  0  0  0  0  0
   -5.4982    2.7490    0.0000 C   0  0  0  0  0  0  0  0  0  0  0  0
   -4.7677    1.4389    0.0000 C   0  0  0  0  0  0  0  0  0  0  0  0
   -5.4587    0.1075    0.0000 C   0  0  0  0  0  0  0  0  0  0  0  0
   -4.8486   -1.2628    0.0000 C   0  0  0  0  0  0  0  0  0  0  0  0
   -3.3968   -1.6402    0.0000 C   0  0  0  0  0  0  0  0  0  0  0  0
   -2.1966   -0.7404    0.0000 C   0  0  0  0  0  0  0  0  0  0  0  0
   -2.1517    0.7589    0.0000 C   0  0  0  0  0  0  0  0  0  0  0  0
   -3.2960    1.7288    0.0000 C   0  0  0  0  0  0  0  0  0  0  0  0
    0.8134    5.4095    0.0000 C   0  0  0  0  0  0  0  0  0  0  0  0
  1  2  1  0
  2  3  1  0
  3  4  1  0
  4  5  1  0
  5  6  1  0
  6  7  1  0
  7  8  2  0
  8  9  1  0
  9 10  2  0
  9 11  1  0
 11 12  1  0
 12 13  1  0
 13 14  1  0
 14 15  1  0
 15 16  1  0
 13 17  1  0
 17 18  1  0
 18 19  2  0
 19 20  1  0
 20 21  2  0
 21 22  1  0
 22 23  2  0
 23 24  1  0
 24 25  2  0
 25 26  1  0
 26 27  2  0
 12 28  2  0
  6  2  1  0
 28  7  1  0
 27 18  1  0
 27 21  1  0
M  END

