
     RDKit          2D

 29 32  0  0  0  0  0  0  0  0999 V2000
    4.7894   14.7500    0.0000 C   0  0  0  0  0  0  0  0  0  0  0  0
    3.9945   13.4779    0.0000 N   0  0  0  0  0  0  0  0  0  0  0  0
    4.6987   12.1535    0.0000 C   0  0  0  0  0  0  0  0  0  0  0  0
    6.1978   12.1011    0.0000 C   0  0  0  0  0  0  0  0  0  0  0  0
    6.9020   10.7767    0.0000 C   0  0  0  0  0  0  0  0  0  0  0  0
    6.1071    9.5046    0.0000 C   0  0  0  0  0  0  0  0  0  0  0  0
    6.8114    8.1802    0.0000 C   0  0  0  0  0  0  0  0  0  0  0  0
    8.3104    8.1279    0.0000 C   0  0  0  0  0  0  0  0  0  0  0  0
    6.0165    6.9081    0.0000 N   0  0  0  0  0  0  0  0  0  0  0  0
    4.5174    6.9605    0.0000 C   0  0  0  0  0  0  0  0  0  0  0  0
    3.8132    8.2849    0.0000 O   0  0  0  0  0  0  0  0  0  0  0  0
    3.7225    5.6884    0.0000 N   0  0  0  0  0  0  0  0  0  0  0  0
    4.4267    4.3640    0.0000 C   0  0  0  0  0  0  0  0  0  0  0  0
    3.6318    3.0919    0.0000 C   0  0  0  0  0  0  0  0  0  0  0  0
    2.1328    3.1443    0.0000 C   0  0  0  0  0  0  0  0  0  0  0  0
    2.3415    1.6589    0.0000 N   0  0  0  0  0  0  0  0  0  0  0  0
    0.7062    2.6807    0.0000 C   0  0  0  0  0  0  0  0  0  0  0  0
   -0.4086    3.6844    0.0000 N   0  0  0  0  0  0  0  0  0  0  0  0
   -1.8351    3.2209    0.0000 C   0  0  0  0  0  0  0  0  0  0  0  0
   -2.1470    1.7537    0.0000 N   0  0  0  0  0  0  0  0  0  0  0  0
   -1.0323    0.7500    0.0000 C   0  0  0  0  0  0  0  0  0  0  0  0
    0.3943    1.2135    0.0000 C   0  0  0  0  0  0  0  0  0  0  0  0
    1.2760    0.0000    0.0000 C   0  0  0  0  0  0  0  0  0  0  0  0
    0.3943   -1.2135    0.0000 C   0  0  0  0  0  0  0  0  0  0  0  0
   -1.0323   -0.7500    0.0000 N   0  0  0  0  0  0  0  0  0  0  0  0
    1.4285    4.4687    0.0000 C   0  0  0  0  0  0  0  0  0  0  0  0
    2.2234    5.7408    0.0000 C   0  0  0  0  0  0  0  0  0  0  0  0
    4.6081    9.5570    0.0000 C   0  0  0  0  0  0  0  0  0  0  0  0
    3.9039   10.8814    0.0000 N   0  0  0  0  0  0  0  0  0  0  0  0
  1  2  1  0
  2  3  1  0
  3  4  2  0
  4  5  1  0
  5  6  2  0
  6  7  1  0
  7  8  1  0
  7  9  1  0
  9 10  1  0
 10 11  2  0
 10 12  1  0
 12 13  1  0
 13 14  1  0
 14 15  1  0
 15 16  1  0
 15 17  1  0
 17 18  2  0
 18 19  1  0
 19 20  2  0
 20 21  1  0
 21 22  2  0
 22 23  1  0
 23 24  2  0
 24 25  1  0
 15 26  1  0
 26 27  1  0
  6 28  1  0
 28 29  2  0
 29  3  1  0
 27 12  1  0
 22 17  1  0
 25 21  1  0
M  END

