
     RDKit          2D

 36 40  0  0  0  0  0  0  0  0999 V2000
   -8.6353   -6.3786    0.0000 C   0  0  0  0  0  0  0  0  0  0  0  0
   -7.4217   -5.4969    0.0000 C   0  0  0  0  0  0  0  0  0  0  0  0
   -7.5785   -4.0051    0.0000 N   0  0  0  0  0  0  0  0  0  0  0  0
   -8.9488   -3.3950    0.0000 C   0  0  0  0  0  0  0  0  0  0  0  0
  -10.1624   -4.2767    0.0000 C   0  0  0  0  0  0  0  0  0  0  0  0
   -6.5218   -1.6317    0.0000 N   0  0  0  0  0  0  0  0  0  0  0  0
   -6.3650   -3.1235    0.0000 C   0  0  0  0  0  0  0  0  0  0  0  0
   -5.3083    0.7500    0.0000 C   0  0  0  0  0  0  0  0  0  0  0  0
   -3.8817    1.2135    0.0000 N   0  0  0  0  0  0  0  0  0  0  0  0
   -3.0000    0.0000    0.0000 C   0  0  0  0  0  0  0  0  0  0  0  0
   -3.8817   -1.2135    0.0000 C   0  0  0  0  0  0  0  0  0  0  0  0
   -5.3083   -0.7500    0.0000 N   0  0  0  0  0  0  0  0  0  0  0  0
    3.0000    0.0000    0.0000 O   0  0  0  0  0  0  0  0  0  0  0  0
    1.5000    0.0000    0.0000 C   0  0  0  0  0  0  0  0  0  0  0  0
    0.7500   -1.2990    0.0000 N   0  0  0  0  0  0  0  0  0  0  0  0
   -0.7500   -1.2990    0.0000 C   0  0  0  0  0  0  0  0  0  0  0  0
   -1.5000   -2.5981    0.0000 O   0  0  0  0  0  0  0  0  0  0  0  0
   -1.5000    0.0000    0.0000 N   0  0  0  0  0  0  0  0  0  0  0  0
   -0.7500    1.2990    0.0000 C   0  0  0  0  0  0  0  0  0  0  0  0
    0.7500    1.2990    0.0000 C   0  0  0  0  0  0  0  0  0  0  0  0
    1.5000    2.5981    0.0000 F   0  0  0  0  0  0  0  0  0  0  0  0
   -8.8958    1.1271    0.0000 N   0  0  0  0  0  0  0  0  0  0  0  0
   -8.7390    2.6188    0.0000 C   0  0  0  0  0  0  0  0  0  0  0  0
   -7.2718    2.9307    0.0000 C   0  0  0  0  0  0  0  0  0  0  0  0
   -5.7718    2.9307    0.0000 C   0  0  0  0  0  0  0  0  0  0  0  0
   -6.5218    1.6317    0.0000 C   0  0  0  0  0  0  0  0  0  0  0  0
   -7.5255    0.5170    0.0000 C   0  0  0  0  0  0  0  0  0  0  0  0
  -10.1948   -1.1229    0.0000 C   0  0  0  0  0  0  0  0  0  0  0  0
  -11.4939   -1.8729    0.0000 C   0  0  0  0  0  0  0  0  0  0  0  0
  -12.7929   -1.1229    0.0000 N   0  0  0  0  0  0  0  0  0  0  0  0
  -12.7929    0.3771    0.0000 C   0  0  0  0  0  0  0  0  0  0  0  0
  -11.4939    1.1271    0.0000 N   0  0  0  0  0  0  0  0  0  0  0  0
  -10.1948    0.3771    0.0000 C   0  0  0  0  0  0  0  0  0  0  0  0
  -11.4939   -3.3729    0.0000 N   0  0  0  0  0  0  0  0  0  0  0  0
   -7.5968   -2.6229    0.0000 N   0  0  0  0  0  0  0  0  0  0  0  0
   -8.8958   -1.8729    0.0000 C   0  0  0  0  0  0  0  0  0  0  0  0
  1  2  1  0
  2  3  1  0
  3  4  1  0
  4  5  1  0
  6  7  1  0
  8  9  2  0
  9 10  1  0
 10 11  2  0
 11 12  1  0
 12  8  1  0
 13 14  2  0
 14 15  1  0
 15 16  1  0
 16 17  2  0
 16 18  1  0
 18 19  1  0
 19 20  2  0
 20 14  1  0
 22 23  1  0
 24 23  1  1
 24 25  1  0
 25 26  1  0
 26 27  1  0
 27 22  1  0
 26 24  1  0
 28 29  2  0
 29 30  1  0
 30 31  2  0
 31 32  1  0
 32 33  2  0
 33 28  1  0
 35 36  3  0
  3  7  1  0
  6 12  1  0
 10 18  1  0
 20 21  1  0
 26  8  1  6
 22 33  1  0
 29 34  1  0
 28 36  1  0
M  END

