
     RDKit          2D

 47 51  0  0  0  0  0  0  0  0999 V2000
   -0.4895    2.7762    0.0000 F   0  0  0  0  0  0  0  0  0  0  0  0
    1.5000    0.0000    0.0000 N   0  0  0  0  0  0  0  0  0  0  0  0
    0.7500   -1.2990    0.0000 C   0  0  0  0  0  0  0  0  0  0  0  0
   -0.7500   -1.2990    0.0000 C   0  0  0  0  0  0  0  0  0  0  0  0
   -1.5000    0.0000    0.0000 C   0  0  0  0  0  0  0  0  0  0  0  0
   -0.7500    1.2990    0.0000 C   0  0  0  0  0  0  0  0  0  0  0  0
    0.7500    1.2990    0.0000 C   0  0  0  0  0  0  0  0  0  0  0  0
   -3.8296    3.8023    0.0000 C   0  0  0  0  0  0  0  0  0  0  0  0
   -2.4200    3.2893    0.0000 C   0  0  0  0  0  0  0  0  0  0  0  0
   -2.1595    1.8121    0.0000 C   0  0  0  0  0  0  0  0  0  0  0  0
   -3.3086    0.8479    0.0000 C   0  0  0  0  0  0  0  0  0  0  0  0
   -5.8672    0.3967    0.0000 C   0  0  0  0  0  0  0  0  0  0  0  0
   -4.7181    1.3609    0.0000 C   0  0  0  0  0  0  0  0  0  0  0  0
   -8.5727   -1.4281    0.0000 O   0  0  0  0  0  0  0  0  0  0  0  0
   -8.5203    0.0710    0.0000 C   0  0  0  0  0  0  0  0  0  0  0  0
   -7.2768    0.9098    0.0000 N   0  0  0  0  0  0  0  0  0  0  0  0
   -7.6902    2.3517    0.0000 C   0  0  0  0  0  0  0  0  0  0  0  0
   -9.1893    2.4040    0.0000 C   0  0  0  0  0  0  0  0  0  0  0  0
   -9.7023    0.9945    0.0000 N   0  0  0  0  0  0  0  0  0  0  0  0
  -12.3632    4.7865    0.0000 C   0  0  0  0  0  0  0  0  0  0  0  0
  -11.7057    6.1347    0.0000 C   0  0  0  0  0  0  0  0  0  0  0  0
  -10.2093    6.2393    0.0000 C   0  0  0  0  0  0  0  0  0  0  0  0
   -9.3705    4.9958    0.0000 C   0  0  0  0  0  0  0  0  0  0  0  0
  -10.0281    3.6476    0.0000 C   0  0  0  0  0  0  0  0  0  0  0  0
  -11.5244    3.5429    0.0000 C   0  0  0  0  0  0  0  0  0  0  0  0
   -7.8742    5.1004    0.0000 Br  0  0  0  0  0  0  0  0  0  0  0  0
  -15.5371    7.1690    0.0000 F   0  0  0  0  0  0  0  0  0  0  0  0
  -14.6984    5.9254    0.0000 C   0  0  0  0  0  0  0  0  0  0  0  0
  -15.9419    5.0866    0.0000 F   0  0  0  0  0  0  0  0  0  0  0  0
  -13.4548    6.7642    0.0000 F   0  0  0  0  0  0  0  0  0  0  0  0
  -13.8596    4.6819    0.0000 O   0  0  0  0  0  0  0  0  0  0  0  0
  -14.0280   -0.2459    0.0000 N   0  0  0  0  0  0  0  0  0  0  0  0
  -12.9490   -1.2879    0.0000 C   0  0  0  0  0  0  0  0  0  0  0  0
  -11.5071   -0.8744    0.0000 C   0  0  0  0  0  0  0  0  0  0  0  0
  -11.1442    0.5810    0.0000 C   0  0  0  0  0  0  0  0  0  0  0  0
  -12.2232    1.6230    0.0000 C   0  0  0  0  0  0  0  0  0  0  0  0
  -13.6651    1.2095    0.0000 C   0  0  0  0  0  0  0  0  0  0  0  0
  -15.8328   -2.1148    0.0000 C   0  0  0  0  0  0  0  0  0  0  0  0
  -17.2747   -2.5283    0.0000 C   0  0  0  0  0  0  0  0  0  0  0  0
  -18.3537   -1.4863    0.0000 N   0  0  0  0  0  0  0  0  0  0  0  0
  -17.9908   -0.0308    0.0000 C   0  0  0  0  0  0  0  0  0  0  0  0
  -16.5489    0.3826    0.0000 N   0  0  0  0  0  0  0  0  0  0  0  0
  -15.4699   -0.6594    0.0000 C   0  0  0  0  0  0  0  0  0  0  0  0
  -17.6376   -3.9837    0.0000 N   0  0  0  0  0  0  0  0  0  0  0  0
  -14.0376   -5.6542    0.0000 C   0  0  0  0  0  0  0  0  0  0  0  0
  -15.1166   -4.6122    0.0000 C   0  0  0  0  0  0  0  0  0  0  0  0
  -14.7538   -3.1568    0.0000 N   0  0  0  0  0  0  0  0  0  0  0  0
  2  3  1  0
  3  4  1  0
  4  5  1  0
  5  6  1  0
  6  7  1  0
  7  2  1  0
  8  9  1  0
  9 10  1  0
 10 11  2  0
 12 13  1  0
 14 15  2  0
 15 16  1  0
 16 17  1  0
 17 18  2  0
 18 19  1  0
 19 15  1  0
 20 21  2  0
 21 22  1  0
 22 23  2  0
 23 24  1  0
 24 25  2  0
 25 20  1  0
 27 28  1  0
 28 29  1  0
 28 30  1  0
 28 31  1  0
 32 33  1  0
 33 34  1  0
 34 35  1  0
 35 36  1  0
 36 37  1  0
 37 32  1  0
 38 39  2  0
 39 40  1  0
 40 41  2  0
 41 42  1  0
 42 43  2  0
 43 38  1  0
 45 46  1  0
 46 47  1  0
  1  6  1  0
  6 10  1  0
 11 13  1  0
 12 16  1  0
 18 24  1  0
 23 26  1  0
 20 31  1  0
 19 35  1  0
 32 43  1  0
 39 44  1  0
 38 47  1  0
M  ISO  1   1  18
M  END

