
     RDKit          2D

 37 42  0  0  0  0  0  0  0  0999 V2000
   -4.3731   -5.0855    0.0000 C   0  0  0  0  0  0  0  0  0  0  0  0
   -3.0028   -5.6956    0.0000 C   0  0  0  0  0  0  0  0  0  0  0  0
   -2.8460   -7.1873    0.0000 N   0  0  0  0  0  0  0  0  0  0  0  0
   -3.9607   -8.1910    0.0000 N   0  0  0  0  0  0  0  0  0  0  0  0
   -3.3506   -9.5614    0.0000 C   0  0  0  0  0  0  0  0  0  0  0  0
   -4.1006  -10.8604    0.0000 N   0  0  0  0  0  0  0  0  0  0  0  0
   -1.8588   -9.4046    0.0000 N   0  0  0  0  0  0  0  0  0  0  0  0
   -1.5469   -7.9373    0.0000 C   0  0  0  0  0  0  0  0  0  0  0  0
   -0.1766   -7.3272    0.0000 N   0  0  0  0  0  0  0  0  0  0  0  0
    1.0369   -8.2089    0.0000 C   0  0  0  0  0  0  0  0  0  0  0  0
    2.4072   -7.5988    0.0000 C   0  0  0  0  0  0  0  0  0  0  0  0
    2.5640   -6.1070    0.0000 C   0  0  0  0  0  0  0  0  0  0  0  0
    3.9343   -5.4969    0.0000 C   0  0  0  0  0  0  0  0  0  0  0  0
    5.1479   -6.3786    0.0000 C   0  0  0  0  0  0  0  0  0  0  0  0
    6.5182   -5.7685    0.0000 C   0  0  0  0  0  0  0  0  0  0  0  0
    7.7317   -6.6502    0.0000 C   0  0  0  0  0  0  0  0  0  0  0  0
    7.5749   -8.1420    0.0000 C   0  0  0  0  0  0  0  0  0  0  0  0
    8.7885   -9.0236    0.0000 C   0  0  0  0  0  0  0  0  0  0  0  0
    8.6317  -10.5154    0.0000 F   0  0  0  0  0  0  0  0  0  0  0  0
   10.1588   -8.4135    0.0000 C   0  0  0  0  0  0  0  0  0  0  0  0
   10.3156   -6.9217    0.0000 C   0  0  0  0  0  0  0  0  0  0  0  0
    9.1020   -6.0401    0.0000 C   0  0  0  0  0  0  0  0  0  0  0  0
    9.2588   -4.5483    0.0000 F   0  0  0  0  0  0  0  0  0  0  0  0
    6.6750   -4.2767    0.0000 C   0  0  0  0  0  0  0  0  0  0  0  0
    5.4615   -3.3950    0.0000 C   0  0  0  0  0  0  0  0  0  0  0  0
    4.0911   -4.0051    0.0000 C   0  0  0  0  0  0  0  0  0  0  0  0
    2.8776   -3.1235    0.0000 C   0  0  0  0  0  0  0  0  0  0  0  0
    3.0344   -1.6317    0.0000 C   0  0  0  0  0  0  0  0  0  0  0  0
    1.8209   -0.7500    0.0000 N   0  0  0  0  0  0  0  0  0  0  0  0
    1.8209    0.7500    0.0000 C   0  0  0  0  0  0  0  0  0  0  0  0
    0.3943    1.2135    0.0000 C   0  0  0  0  0  0  0  0  0  0  0  0
    1.2760    0.0000    0.0000 C   0  0  0  0  0  0  0  0  0  0  0  0
    0.3943   -1.2135    0.0000 C   0  0  0  0  0  0  0  0  0  0  0  0
   -1.0323   -0.7500    0.0000 C   0  0  0  0  0  0  0  0  0  0  0  0
   -1.0323    0.7500    0.0000 O   0  0  0  0  0  0  0  0  0  0  0  0
    1.3505   -5.2253    0.0000 C   0  0  0  0  0  0  0  0  0  0  0  0
   -0.0198   -5.8355    0.0000 C   0  0  0  0  0  0  0  0  0  0  0  0
  1  2  1  0
  2  3  1  0
  3  4  1  0
  4  5  2  0
  5  6  1  0
  5  7  1  0
  7  8  2  0
  8  9  1  0
  9 10  1  0
 10 11  1  0
 11 12  1  0
 12 13  1  0
 13 14  2  0
 14 15  1  0
 15 16  1  0
 16 17  2  0
 17 18  1  0
 18 19  1  0
 18 20  2  0
 20 21  1  0
 21 22  2  0
 22 23  1  0
 15 24  2  0
 24 25  1  0
 25 26  2  0
 26 27  1  0
 27 28  1  0
 28 29  1  0
 29 30  1  0
 31 30  1  1
 31 32  1  0
 32 33  1  0
 33 34  1  1
 34 35  1  0
 12 36  1  0
 36 37  1  0
  8  3  1  0
 37  9  1  0
 26 13  1  0
 33 29  1  0
 22 16  1  0
 35 31  1  0
M  ISO  1  19  18
M  END

