
     RDKit          2D

 35 40  0  0  0  0  0  0  0  0999 V2000
  -11.1150    6.4139    0.0000 C   0  0  0  0  0  0  0  0  0  0  0  0
  -10.3650    5.1149    0.0000 N   0  0  0  0  0  0  0  0  0  0  0  0
  -11.1150    3.8158    0.0000 C   0  0  0  0  0  0  0  0  0  0  0  0
   -8.8650    5.1149    0.0000 C   0  0  0  0  0  0  0  0  0  0  0  0
   -8.1150    3.8158    0.0000 C   0  0  0  0  0  0  0  0  0  0  0  0
   -8.8650    2.5168    0.0000 O   0  0  0  0  0  0  0  0  0  0  0  0
   -6.6150    3.8158    0.0000 N   0  0  0  0  0  0  0  0  0  0  0  0
   -5.7333    5.0294    0.0000 C   0  0  0  0  0  0  0  0  0  0  0  0
   -4.3068    4.5658    0.0000 C   0  0  0  0  0  0  0  0  0  0  0  0
   -3.0077    3.8158    0.0000 C   0  0  0  0  0  0  0  0  0  0  0  0
   -4.3068    3.0658    0.0000 C   0  0  0  0  0  0  0  0  0  0  0  0
   -3.6967    1.6955    0.0000 C   0  0  0  0  0  0  0  0  0  0  0  0
   -2.2294    1.3837    0.0000 N   0  0  0  0  0  0  0  0  0  0  0  0
   -2.0726   -0.1081    0.0000 N   0  0  0  0  0  0  0  0  0  0  0  0
   -0.7736   -0.8581    0.0000 C   0  0  0  0  0  0  0  0  0  0  0  0
    0.5254   -0.1081    0.0000 N   0  0  0  0  0  0  0  0  0  0  0  0
   -3.4430   -0.7182    0.0000 C   0  0  0  0  0  0  0  0  0  0  0  0
   -3.7548   -2.1855    0.0000 C   0  0  0  0  0  0  0  0  0  0  0  0
   -2.6401   -3.1891    0.0000 N   0  0  0  0  0  0  0  0  0  0  0  0
   -2.9520   -4.6564    0.0000 C   0  0  0  0  0  0  0  0  0  0  0  0
   -1.8373   -5.6601    0.0000 N   0  0  0  0  0  0  0  0  0  0  0  0
   -4.3786   -5.1199    0.0000 C   0  0  0  0  0  0  0  0  0  0  0  0
   -5.4933   -4.1162    0.0000 N   0  0  0  0  0  0  0  0  0  0  0  0
   -5.1814   -2.6490    0.0000 C   0  0  0  0  0  0  0  0  0  0  0  0
   -6.2961   -1.6453    0.0000 N   0  0  0  0  0  0  0  0  0  0  0  0
   -6.1393   -0.1535    0.0000 N   0  0  0  0  0  0  0  0  0  0  0  0
   -7.5097    0.4566    0.0000 N   0  0  0  0  0  0  0  0  0  0  0  0
   -8.5134   -0.6581    0.0000 C   0  0  0  0  0  0  0  0  0  0  0  0
  -10.0134   -0.6581    0.0000 C   0  0  0  0  0  0  0  0  0  0  0  0
  -10.7634   -1.9571    0.0000 C   0  0  0  0  0  0  0  0  0  0  0  0
  -10.0134   -3.2562    0.0000 C   0  0  0  0  0  0  0  0  0  0  0  0
   -8.5134   -3.2562    0.0000 C   0  0  0  0  0  0  0  0  0  0  0  0
   -7.7634   -1.9571    0.0000 C   0  0  0  0  0  0  0  0  0  0  0  0
   -4.4467    0.3965    0.0000 N   0  0  0  0  0  0  0  0  0  0  0  0
   -5.7333    2.6023    0.0000 C   0  0  0  0  0  0  0  0  0  0  0  0
  1  2  1  0
  2  3  1  0
  2  4  1  0
  4  5  1  0
  5  6  2  0
  5  7  1  0
  7  8  1  0
  9  8  1  1
  9 10  1  0
 10 11  1  0
 11 12  1  6
 12 13  2  0
 13 14  1  0
 14 15  1  0
 15 16  1  0
 14 17  1  0
 17 18  1  0
 18 19  2  0
 19 20  1  0
 20 21  1  0
 20 22  2  0
 22 23  1  0
 23 24  2  0
 24 25  1  0
 25 26  1  0
 26 27  2  0
 27 28  1  0
 28 29  2  0
 29 30  1  0
 30 31  2  0
 31 32  1  0
 32 33  2  0
 17 34  2  0
 11 35  1  0
 35  7  1  0
 11  9  1  0
 34 12  1  0
 24 18  1  0
 33 25  1  0
 33 28  1  0
M  END

