
     RDKit          2D

 31 34  0  0  0  0  0  0  0  0999 V2000
    2.7760    0.0000    0.0000 C   0  0  0  0  0  0  0  0  0  0  0  0
    1.2760    0.0000    0.0000 C   0  0  0  0  0  0  0  0  0  0  0  0
    0.3943    1.2135    0.0000 C   0  0  0  0  0  0  0  0  0  0  0  0
    0.8578    2.6401    0.0000 C   0  0  0  0  0  0  0  0  0  0  0  0
   -0.0239    3.8536    0.0000 C   0  0  0  0  0  0  0  0  0  0  0  0
    0.8578    5.0672    0.0000 S   0  0  0  0  0  0  0  0  0  0  0  0
    2.2844    4.6036    0.0000 C   0  0  0  0  0  0  0  0  0  0  0  0
    3.4979    5.4853    0.0000 C   0  0  0  0  0  0  0  0  0  0  0  0
    4.5769    4.4433    0.0000 C   0  0  0  0  0  0  0  0  0  0  0  0
    6.0188    4.8568    0.0000 C   0  0  0  0  0  0  0  0  0  0  0  0
    7.4607    5.2702    0.0000 F   0  0  0  0  0  0  0  0  0  0  0  0
    6.4323    3.4149    0.0000 F   0  0  0  0  0  0  0  0  0  0  0  0
    5.6054    6.2987    0.0000 F   0  0  0  0  0  0  0  0  0  0  0  0
    4.3367    6.7289    0.0000 C   0  0  0  0  0  0  0  0  0  0  0  0
    2.8404    6.8335    0.0000 C   0  0  0  0  0  0  0  0  0  0  0  0
    2.2844    3.1036    0.0000 N   0  0  0  0  0  0  0  0  0  0  0  0
   -1.0323    0.7500    0.0000 S   0  0  0  0  0  0  0  0  0  0  0  0
   -1.0323   -0.7500    0.0000 C   0  0  0  0  0  0  0  0  0  0  0  0
   -2.2458   -1.6317    0.0000 C   0  0  0  0  0  0  0  0  0  0  0  0
   -2.0890   -3.1235    0.0000 O   0  0  0  0  0  0  0  0  0  0  0  0
   -3.6161   -1.0216    0.0000 N   0  0  0  0  0  0  0  0  0  0  0  0
   -4.8297   -1.9033    0.0000 C   0  0  0  0  0  0  0  0  0  0  0  0
   -6.2562   -1.4397    0.0000 C   0  0  0  0  0  0  0  0  0  0  0  0
   -6.7198   -0.0131    0.0000 C   0  0  0  0  0  0  0  0  0  0  0  0
   -8.1870    0.2987    0.0000 N   0  0  0  0  0  0  0  0  0  0  0  0
   -5.7161    1.1016    0.0000 O   0  0  0  0  0  0  0  0  0  0  0  0
   -7.1379   -2.6533    0.0000 C   0  0  0  0  0  0  0  0  0  0  0  0
   -6.2562   -3.8668    0.0000 C   0  0  0  0  0  0  0  0  0  0  0  0
   -4.8297   -3.4033    0.0000 N   0  0  0  0  0  0  0  0  0  0  0  0
   -3.6161   -4.2849    0.0000 Cl  0  0  0  0  0  0  0  0  0  0  0  0
    0.3943   -1.2135    0.0000 N   0  0  0  0  0  0  0  0  0  0  0  0
  1  2  1  0
  2  3  2  0
  3  4  1  0
  4  5  2  0
  5  6  1  0
  6  7  1  0
  7  8  1  0
  8  9  1  0
  9 10  1  0
 10 11  1  0
 10 12  1  0
 10 13  1  0
  8 14  1  0
 14 15  1  0
  7 16  2  0
  3 17  1  0
 17 18  1  0
 18 19  1  0
 19 20  2  0
 19 21  1  0
 22 21  1  6
 22 23  1  0
 23 24  1  6
 24 25  1  0
 24 26  2  0
 23 27  1  0
 27 28  1  0
 28 29  1  0
 29 30  1  0
 18 31  2  0
 31  2  1  0
 16  4  1  0
 29 22  1  0
 15  8  1  0
M  END

