
     RDKit          2D

 33 36  0  0  0  0  0  0  0  0999 V2000
   -3.0720    6.2177    0.0000 C   0  0  0  0  0  0  0  0  0  0  0  0
   -1.7843    5.4484    0.0000 C   0  0  0  0  0  0  0  0  0  0  0  0
   -0.4742    6.1789    0.0000 C   0  0  0  0  0  0  0  0  0  0  0  0
   -0.4518    7.6787    0.0000 C   0  0  0  0  0  0  0  0  0  0  0  0
    0.8583    8.4092    0.0000 C   0  0  0  0  0  0  0  0  0  0  0  0
    2.1460    7.6398    0.0000 C   0  0  0  0  0  0  0  0  0  0  0  0
    3.4561    8.3703    0.0000 C   0  0  0  0  0  0  0  0  0  0  0  0
    4.7438    7.6010    0.0000 C   0  0  0  0  0  0  0  0  0  0  0  0
    4.7213    6.1011    0.0000 C   0  0  0  0  0  0  0  0  0  0  0  0
    6.0090    5.3318    0.0000 C   0  0  0  0  0  0  0  0  0  0  0  0
    7.3191    6.0623    0.0000 N   0  0  0  0  0  0  0  0  0  0  0  0
    7.3416    7.5621    0.0000 C   0  0  0  0  0  0  0  0  0  0  0  0
    6.0539    8.3314    0.0000 C   0  0  0  0  0  0  0  0  0  0  0  0
    3.4786    9.8701    0.0000 C   0  0  0  0  0  0  0  0  0  0  0  0
    2.1909   10.6395    0.0000 C   0  0  0  0  0  0  0  0  0  0  0  0
    2.2133   12.1393    0.0000 C   0  0  0  0  0  0  0  0  0  0  0  0
    3.5234   12.8698    0.0000 C   0  0  0  0  0  0  0  0  0  0  0  0
    3.5459   14.3696    0.0000 C   0  0  0  0  0  0  0  0  0  0  0  0
    3.5683   15.8695    0.0000 N   0  0  0  0  0  0  0  0  0  0  0  0
    4.8111   12.1005    0.0000 C   0  0  0  0  0  0  0  0  0  0  0  0
    6.0988   11.3311    0.0000 N   0  0  0  0  0  0  0  0  0  0  0  0
    0.8808    9.9090    0.0000 C   0  0  0  0  0  0  0  0  0  0  0  0
   -1.8068    3.9485    0.0000 C   0  0  0  0  0  0  0  0  0  0  0  0
   -0.5191    3.1792    0.0000 C   0  0  0  0  0  0  0  0  0  0  0  0
    0.8602    3.7687    0.0000 C   0  0  0  0  0  0  0  0  0  0  0  0
    1.8471    2.6391    0.0000 C   0  0  0  0  0  0  0  0  0  0  0  0
    1.0777    1.3515    0.0000 C   0  0  0  0  0  0  0  0  0  0  0  0
    1.7286    0.0000    0.0000 C   0  0  0  0  0  0  0  0  0  0  0  0
    1.0777   -1.3515    0.0000 C   0  0  0  0  0  0  0  0  0  0  0  0
   -0.3846   -1.6852    0.0000 C   0  0  0  0  0  0  0  0  0  0  0  0
   -1.5574   -0.7500    0.0000 C   0  0  0  0  0  0  0  0  0  0  0  0
   -1.5574    0.7500    0.0000 C   0  0  0  0  0  0  0  0  0  0  0  0
   -0.3846    1.6852    0.0000 C   0  0  0  0  0  0  0  0  0  0  0  0
  2  1  1  6
  2  3  1  0
  3  4  1  0
  4  5  1  0
  5  6  2  0
  6  7  1  0
  7  8  1  0
  8  9  2  0
  9 10  1  0
 10 11  2  0
 11 12  1  0
 12 13  2  0
  7 14  2  0
 14 15  1  0
 15 16  1  0
 16 17  2  3
 17 18  1  0
 18 19  3  0
 17 20  1  0
 20 21  3  0
 15 22  2  0
  2 23  1  0
 23 24  1  0
 24 25  2  0
 25 26  1  0
 26 27  2  0
 27 28  1  0
 28 29  2  0
 29 30  1  0
 30 31  2  0
 31 32  1  0
 32 33  2  0
 22  5  1  0
 33 24  1  0
 13  8  1  0
 33 27  1  0
M  END

