
     RDKit          2D

 31 34  0  0  0  0  0  0  0  0999 V2000
   -6.9431   -6.6502    0.0000 C   0  0  0  0  0  0  0  0  0  0  0  0
   -5.7296   -5.7685    0.0000 C   0  0  0  0  0  0  0  0  0  0  0  0
   -5.8864   -4.2767    0.0000 O   0  0  0  0  0  0  0  0  0  0  0  0
   -4.3593   -6.3786    0.0000 N   0  0  0  0  0  0  0  0  0  0  0  0
   -3.1458   -5.4969    0.0000 C   0  0  0  0  0  0  0  0  0  0  0  0
   -3.3025   -4.0051    0.0000 C   0  0  0  0  0  0  0  0  0  0  0  0
   -2.0890   -3.1235    0.0000 C   0  0  0  0  0  0  0  0  0  0  0  0
   -2.2458   -1.6317    0.0000 N   0  0  0  0  0  0  0  0  0  0  0  0
   -1.0323   -0.7500    0.0000 C   0  0  0  0  0  0  0  0  0  0  0  0
   -1.0323    0.7500    0.0000 C   0  0  0  0  0  0  0  0  0  0  0  0
   -2.1470    1.7537    0.0000 N   0  0  0  0  0  0  0  0  0  0  0  0
   -1.8351    3.2209    0.0000 C   0  0  0  0  0  0  0  0  0  0  0  0
   -2.9499    4.2246    0.0000 N   0  0  0  0  0  0  0  0  0  0  0  0
   -2.6380    5.6918    0.0000 N   0  0  0  0  0  0  0  0  0  0  0  0
   -3.6417    6.8066    0.0000 C   0  0  0  0  0  0  0  0  0  0  0  0
   -2.8917    8.1056    0.0000 C   0  0  0  0  0  0  0  0  0  0  0  0
   -1.4245    7.7937    0.0000 C   0  0  0  0  0  0  0  0  0  0  0  0
   -0.3097    8.7974    0.0000 C   0  0  0  0  0  0  0  0  0  0  0  0
   -1.2677    6.3019    0.0000 N   0  0  0  0  0  0  0  0  0  0  0  0
   -0.4086    3.6844    0.0000 C   0  0  0  0  0  0  0  0  0  0  0  0
    0.7062    2.6807    0.0000 C   0  0  0  0  0  0  0  0  0  0  0  0
    2.1328    3.1443    0.0000 C   0  0  0  0  0  0  0  0  0  0  0  0
    3.5593    3.6078    0.0000 N   0  0  0  0  0  0  0  0  0  0  0  0
    0.3943    1.2135    0.0000 N   0  0  0  0  0  0  0  0  0  0  0  0
    1.2760    0.0000    0.0000 N   0  0  0  0  0  0  0  0  0  0  0  0
    0.3943   -1.2135    0.0000 C   0  0  0  0  0  0  0  0  0  0  0  0
   -0.7187   -3.7336    0.0000 N   0  0  0  0  0  0  0  0  0  0  0  0
   -0.5619   -5.2253    0.0000 C   0  0  0  0  0  0  0  0  0  0  0  0
   -1.7754   -6.1070    0.0000 C   0  0  0  0  0  0  0  0  0  0  0  0
   -1.6186   -7.5988    0.0000 C   0  0  0  0  0  0  0  0  0  0  0  0
   -0.2483   -8.2089    0.0000 N   0  0  0  0  0  0  0  0  0  0  0  0
  1  2  1  0
  2  3  2  0
  2  4  1  0
  4  5  1  0
  5  6  2  0
  6  7  1  0
  7  8  1  0
  8  9  1  0
  9 10  2  0
 10 11  1  0
 11 12  2  0
 12 13  1  0
 13 14  1  0
 14 15  1  0
 15 16  2  0
 16 17  1  0
 17 18  1  0
 17 19  2  0
 12 20  1  0
 20 21  2  0
 21 22  1  0
 22 23  3  0
 21 24  1  0
 24 25  1  0
 25 26  2  0
  7 27  2  0
 27 28  1  0
 28 29  2  0
 29 30  1  0
 30 31  1  0
 29  5  1  0
 26  9  1  0
 24 10  1  0
 19 14  1  0
M  END

