
     RDKit          2D

 27 30  0  0  0  0  0  0  0  0999 V2000
    6.3767    3.5094    0.0000 N   0  0  0  0  0  0  0  0  0  0  0  0
    4.9859    4.0713    0.0000 C   0  0  0  0  0  0  0  0  0  0  0  0
    5.7808    5.3434    0.0000 C   0  0  0  0  0  0  0  0  0  0  0  0
    7.2799    5.2910    0.0000 N   0  0  0  0  0  0  0  0  0  0  0  0
    8.0748    6.5631    0.0000 C   0  0  0  0  0  0  0  0  0  0  0  0
    7.3706    7.8875    0.0000 O   0  0  0  0  0  0  0  0  0  0  0  0
    9.5739    6.5108    0.0000 C   0  0  0  0  0  0  0  0  0  0  0  0
   10.2781    5.1863    0.0000 C   0  0  0  0  0  0  0  0  0  0  0  0
   11.7771    5.1340    0.0000 C   0  0  0  0  0  0  0  0  0  0  0  0
   12.5720    6.4061    0.0000 C   0  0  0  0  0  0  0  0  0  0  0  0
   14.0711    6.3537    0.0000 Cl  0  0  0  0  0  0  0  0  0  0  0  0
   11.8678    7.7305    0.0000 C   0  0  0  0  0  0  0  0  0  0  0  0
   10.3687    7.7828    0.0000 C   0  0  0  0  0  0  0  0  0  0  0  0
    3.8712    5.0750    0.0000 C   0  0  0  0  0  0  0  0  0  0  0  0
    2.4446    4.6115    0.0000 C   0  0  0  0  0  0  0  0  0  0  0  0
    2.1328    3.1443    0.0000 N   0  0  0  0  0  0  0  0  0  0  0  0
    0.7062    2.6807    0.0000 C   0  0  0  0  0  0  0  0  0  0  0  0
   -0.4086    3.6844    0.0000 N   0  0  0  0  0  0  0  0  0  0  0  0
   -1.8351    3.2209    0.0000 C   0  0  0  0  0  0  0  0  0  0  0  0
   -2.1470    1.7537    0.0000 N   0  0  0  0  0  0  0  0  0  0  0  0
   -1.0323    0.7500    0.0000 C   0  0  0  0  0  0  0  0  0  0  0  0
    0.3943    1.2135    0.0000 C   0  0  0  0  0  0  0  0  0  0  0  0
    1.2760    0.0000    0.0000 C   0  0  0  0  0  0  0  0  0  0  0  0
    0.3943   -1.2135    0.0000 C   0  0  0  0  0  0  0  0  0  0  0  0
   -1.0323   -0.7500    0.0000 N   0  0  0  0  0  0  0  0  0  0  0  0
    3.2475    2.1406    0.0000 C   0  0  0  0  0  0  0  0  0  0  0  0
    4.6741    2.6041    0.0000 C   0  0  0  0  0  0  0  0  0  0  0  0
  1  2  1  0
  2  3  1  0
  3  4  1  0
  4  5  1  0
  5  6  2  0
  5  7  1  0
  7  8  2  0
  8  9  1  0
  9 10  2  0
 10 11  1  0
 10 12  1  0
 12 13  2  0
  2 14  1  0
 14 15  1  0
 15 16  1  0
 16 17  1  0
 17 18  2  0
 18 19  1  0
 19 20  2  0
 20 21  1  0
 21 22  2  0
 22 23  1  0
 23 24  2  0
 24 25  1  0
 16 26  1  0
 26 27  1  0
 27  2  1  0
 13  7  1  0
 22 17  1  0
 25 21  1  0
M  END

