
     RDKit          2D

 32 35  0  0  0  0  0  0  0  0999 V2000
    2.7760    0.0000    0.0000 C   0  0  0  0  0  0  0  0  0  0  0  0
    1.2760    0.0000    0.0000 C   0  0  0  0  0  0  0  0  0  0  0  0
    0.3943    1.2135    0.0000 C   0  0  0  0  0  0  0  0  0  0  0  0
    0.8578    2.6401    0.0000 C   0  0  0  0  0  0  0  0  0  0  0  0
   -0.0239    3.8536    0.0000 C   0  0  0  0  0  0  0  0  0  0  0  0
    0.8578    5.0672    0.0000 S   0  0  0  0  0  0  0  0  0  0  0  0
    2.2844    4.6036    0.0000 C   0  0  0  0  0  0  0  0  0  0  0  0
    3.4979    5.4853    0.0000 C   0  0  0  0  0  0  0  0  0  0  0  0
    4.5769    4.4433    0.0000 C   0  0  0  0  0  0  0  0  0  0  0  0
    6.0188    4.8568    0.0000 C   0  0  0  0  0  0  0  0  0  0  0  0
    7.4607    5.2702    0.0000 F   0  0  0  0  0  0  0  0  0  0  0  0
    6.4323    3.4149    0.0000 F   0  0  0  0  0  0  0  0  0  0  0  0
    5.6054    6.2987    0.0000 F   0  0  0  0  0  0  0  0  0  0  0  0
    4.3367    6.7289    0.0000 C   0  0  0  0  0  0  0  0  0  0  0  0
    2.8404    6.8335    0.0000 C   0  0  0  0  0  0  0  0  0  0  0  0
    2.2844    3.1036    0.0000 N   0  0  0  0  0  0  0  0  0  0  0  0
   -1.0323    0.7500    0.0000 S   0  0  0  0  0  0  0  0  0  0  0  0
   -1.0323   -0.7500    0.0000 C   0  0  0  0  0  0  0  0  0  0  0  0
   -2.2458   -1.6317    0.0000 C   0  0  0  0  0  0  0  0  0  0  0  0
   -2.0465   -2.4947    0.0000 O   0  0  0  0  0  0  0  0  0  0  0  0
   -3.6161   -1.0216    0.0000 N   0  0  0  0  0  0  0  0  0  0  0  0
   -4.8297   -1.9033    0.0000 C   0  0  0  0  0  0  0  0  0  0  0  0
   -3.8260   -3.0180    0.0000 C   0  0  0  0  0  0  0  0  0  0  0  0
   -4.2895   -4.4446    0.0000 N   0  0  0  0  0  0  0  0  0  0  0  0
   -2.9436   -2.9408    0.0000 O   0  0  0  0  0  0  0  0  0  0  0  0
   -5.8334   -3.0180    0.0000 C   0  0  0  0  0  0  0  0  0  0  0  0
   -7.2037   -2.4079    0.0000 C   0  0  0  0  0  0  0  0  0  0  0  0
   -7.0469   -0.9161    0.0000 C   0  0  0  0  0  0  0  0  0  0  0  0
   -5.5797   -0.6042    0.0000 N   0  0  0  0  0  0  0  0  0  0  0  0
   -4.9696    0.7661    0.0000 C   0  0  0  0  0  0  0  0  0  0  0  0
   -4.3594    2.1364    0.0000 N   0  0  0  0  0  0  0  0  0  0  0  0
    0.3943   -1.2135    0.0000 N   0  0  0  0  0  0  0  0  0  0  0  0
  1  2  1  0
  2  3  2  0
  3  4  1  0
  4  5  2  0
  5  6  1  0
  6  7  1  0
  7  8  1  0
  8  9  1  0
  9 10  1  0
 10 11  1  0
 10 12  1  0
 10 13  1  0
  8 14  1  0
 14 15  1  0
  7 16  2  0
  3 17  1  0
 17 18  1  0
 18 19  1  0
 19 20  2  0
 19 21  1  0
 22 21  1  1
 22 23  1  0
 23 24  1  0
 23 25  2  0
 22 26  1  0
 26 27  1  0
 27 28  1  0
 28 29  1  0
 29 30  1  0
 30 31  3  0
 18 32  2  0
 32  2  1  0
 16  4  1  0
 29 22  1  0
 15  8  1  0
M  END

