
     RDKit          2D

 41 44  0  0  0  0  0  0  0  0999 V2000
   -1.4369  -23.8387    0.0000 C   0  0  0  0  0  0  0  0  0  0  0  0
   -1.7487  -22.3714    0.0000 N   0  0  0  0  0  0  0  0  0  0  0  0
   -3.1753  -21.9079    0.0000 C   0  0  0  0  0  0  0  0  0  0  0  0
   -0.6340  -21.3677    0.0000 C   0  0  0  0  0  0  0  0  0  0  0  0
   -0.9459  -19.9005    0.0000 C   0  0  0  0  0  0  0  0  0  0  0  0
    0.1688  -18.8968    0.0000 N   0  0  0  0  0  0  0  0  0  0  0  0
   -0.1430  -17.4296    0.0000 C   0  0  0  0  0  0  0  0  0  0  0  0
   -1.5696  -16.9661    0.0000 O   0  0  0  0  0  0  0  0  0  0  0  0
    0.9717  -16.4259    0.0000 N   0  0  0  0  0  0  0  0  0  0  0  0
    0.0361  -12.0242    0.0000 C   0  0  0  0  0  0  0  0  0  0  0  0
   -1.0786  -13.0279    0.0000 C   0  0  0  0  0  0  0  0  0  0  0  0
   -0.7668  -14.4952    0.0000 C   0  0  0  0  0  0  0  0  0  0  0  0
    0.6598  -14.9587    0.0000 C   0  0  0  0  0  0  0  0  0  0  0  0
    1.7745  -13.9550    0.0000 N   0  0  0  0  0  0  0  0  0  0  0  0
    1.4627  -12.4878    0.0000 C   0  0  0  0  0  0  0  0  0  0  0  0
    2.2655  -10.0169    0.0000 O   0  0  0  0  0  0  0  0  0  0  0  0
    0.8389   -9.5533    0.0000 C   0  0  0  0  0  0  0  0  0  0  0  0
   -0.2758  -10.5570    0.0000 N   0  0  0  0  0  0  0  0  0  0  0  0
   -0.0967   -5.1517    0.0000 C   0  0  0  0  0  0  0  0  0  0  0  0
   -1.2114   -6.1554    0.0000 C   0  0  0  0  0  0  0  0  0  0  0  0
   -0.8995   -7.6226    0.0000 C   0  0  0  0  0  0  0  0  0  0  0  0
    0.5271   -8.0861    0.0000 C   0  0  0  0  0  0  0  0  0  0  0  0
    1.6418   -7.0824    0.0000 C   0  0  0  0  0  0  0  0  0  0  0  0
    1.3299   -5.6152    0.0000 C   0  0  0  0  0  0  0  0  0  0  0  0
    1.2760    0.0000    0.0000 N   0  0  0  0  0  0  0  0  0  0  0  0
    0.3943    1.2135    0.0000 N   0  0  0  0  0  0  0  0  0  0  0  0
   -1.0323    0.7500    0.0000 N   0  0  0  0  0  0  0  0  0  0  0  0
   -1.0323   -0.7500    0.0000 C   0  0  0  0  0  0  0  0  0  0  0  0
   -2.1470   -1.7537    0.0000 C   0  0  0  0  0  0  0  0  0  0  0  0
   -1.8351   -3.2209    0.0000 N   0  0  0  0  0  0  0  0  0  0  0  0
   -0.4086   -3.6844    0.0000 C   0  0  0  0  0  0  0  0  0  0  0  0
    0.7062   -2.6807    0.0000 N   0  0  0  0  0  0  0  0  0  0  0  0
    0.3943   -1.2135    0.0000 C   0  0  0  0  0  0  0  0  0  0  0  0
   -7.0505    2.5713    0.0000 C   0  0  0  0  0  0  0  0  0  0  0  0
   -5.6239    2.1078    0.0000 O   0  0  0  0  0  0  0  0  0  0  0  0
   -5.3120    0.6406    0.0000 C   0  0  0  0  0  0  0  0  0  0  0  0
   -3.8855    0.1771    0.0000 C   0  0  0  0  0  0  0  0  0  0  0  0
   -3.5736   -1.2902    0.0000 N   0  0  0  0  0  0  0  0  0  0  0  0
   -4.6883   -2.2939    0.0000 C   0  0  0  0  0  0  0  0  0  0  0  0
    3.5260    1.2990    0.0000 C   0  0  0  0  0  0  0  0  0  0  0  0
    2.7760    0.0000    0.0000 C   0  0  0  0  0  0  0  0  0  0  0  0
  1  2  1  0
  2  3  1  0
  2  4  1  0
  4  5  1  0
  5  6  1  0
  6  7  1  0
  7  8  2  0
  7  9  1  0
 10 11  2  0
 11 12  1  0
 12 13  2  0
 13 14  1  0
 14 15  2  0
 15 10  1  0
 16 17  2  0
 17 18  1  0
 19 20  2  0
 20 21  1  0
 21 22  2  0
 22 23  1  0
 23 24  2  0
 24 19  1  0
 25 26  1  0
 26 27  2  0
 27 28  1  0
 28 29  2  0
 29 30  1  0
 30 31  2  0
 31 32  1  0
 32 33  2  0
 33 25  1  0
 33 28  1  0
 34 35  1  0
 35 36  1  0
 36 37  1  0
 37 38  1  0
 38 39  1  0
 40 41  1  0
  9 13  1  0
 10 18  1  0
 17 22  1  0
 19 31  1  0
 29 38  1  0
 25 41  1  0
M  END

