
     RDKit          2D

 34 38  0  0  0  0  0  0  0  0999 V2000
    7.2760    2.5981    0.0000 C   0  0  0  0  0  0  0  0  0  0  0  0
    5.7760    2.5981    0.0000 O   0  0  0  0  0  0  0  0  0  0  0  0
    5.0260    1.2990    0.0000 C   0  0  0  0  0  0  0  0  0  0  0  0
    3.5260    1.2990    0.0000 C   0  0  0  0  0  0  0  0  0  0  0  0
    2.7760    0.0000    0.0000 N   0  0  0  0  0  0  0  0  0  0  0  0
    3.5260   -1.2990    0.0000 C   0  0  0  0  0  0  0  0  0  0  0  0
    1.2760    0.0000    0.0000 C   0  0  0  0  0  0  0  0  0  0  0  0
    0.3943    1.2135    0.0000 N   0  0  0  0  0  0  0  0  0  0  0  0
   -1.0323    0.7500    0.0000 C   0  0  0  0  0  0  0  0  0  0  0  0
   -2.3313    1.5000    0.0000 C   0  0  0  0  0  0  0  0  0  0  0  0
   -2.3313    3.0000    0.0000 N   0  0  0  0  0  0  0  0  0  0  0  0
   -1.1178    3.8817    0.0000 C   0  0  0  0  0  0  0  0  0  0  0  0
   -1.5813    5.3083    0.0000 C   0  0  0  0  0  0  0  0  0  0  0  0
   -3.0813    5.3083    0.0000 C   0  0  0  0  0  0  0  0  0  0  0  0
   -4.0850    6.4230    0.0000 C   0  0  0  0  0  0  0  0  0  0  0  0
   -5.5522    6.1111    0.0000 C   0  0  0  0  0  0  0  0  0  0  0  0
   -6.0158    4.6845    0.0000 C   0  0  0  0  0  0  0  0  0  0  0  0
   -5.0121    3.5698    0.0000 C   0  0  0  0  0  0  0  0  0  0  0  0
   -3.5449    3.8817    0.0000 C   0  0  0  0  0  0  0  0  0  0  0  0
   -3.6304    0.7500    0.0000 N   0  0  0  0  0  0  0  0  0  0  0  0
   -3.6304   -0.7500    0.0000 C   0  0  0  0  0  0  0  0  0  0  0  0
   -4.9294   -1.5000    0.0000 C   0  0  0  0  0  0  0  0  0  0  0  0
   -6.2284   -0.7500    0.0000 N   0  0  0  0  0  0  0  0  0  0  0  0
   -6.2284    0.7500    0.0000 C   0  0  0  0  0  0  0  0  0  0  0  0
   -7.5275    1.5000    0.0000 C   0  0  0  0  0  0  0  0  0  0  0  0
   -8.8265    0.7500    0.0000 C   0  0  0  0  0  0  0  0  0  0  0  0
  -10.1256    1.5000    0.0000 N   0  0  0  0  0  0  0  0  0  0  0  0
  -10.1256    3.0000    0.0000 C   0  0  0  0  0  0  0  0  0  0  0  0
  -11.4246    0.7500    0.0000 C   0  0  0  0  0  0  0  0  0  0  0  0
   -8.8265   -0.7500    0.0000 C   0  0  0  0  0  0  0  0  0  0  0  0
   -7.5275   -1.5000    0.0000 C   0  0  0  0  0  0  0  0  0  0  0  0
   -2.3313   -1.5000    0.0000 N   0  0  0  0  0  0  0  0  0  0  0  0
   -1.0323   -0.7500    0.0000 C   0  0  0  0  0  0  0  0  0  0  0  0
    0.3943   -1.2135    0.0000 N   0  0  0  0  0  0  0  0  0  0  0  0
  1  2  1  0
  2  3  1  0
  3  4  1  0
  4  5  1  0
  5  6  1  0
  5  7  1  0
  7  8  2  0
  8  9  1  0
  9 10  2  0
 10 11  1  0
 11 12  1  0
 12 13  2  0
 13 14  1  0
 14 15  2  0
 15 16  1  0
 16 17  2  0
 17 18  1  0
 18 19  2  0
 10 20  1  0
 20 21  2  0
 21 22  1  0
 22 23  1  0
 23 24  1  0
 24 25  1  0
 25 26  1  0
 26 27  1  0
 27 28  1  0
 27 29  1  0
 26 30  1  0
 30 31  1  0
 21 32  1  0
 32 33  2  0
 33 34  1  0
 34  7  1  0
 33  9  1  0
 19 11  1  0
 31 23  1  0
 19 14  1  0
M  END

