
     RDKit          2D

 28 31  0  0  0  0  0  0  0  0999 V2000
    6.1298   -2.5904    0.0000 C   0  0  0  0  0  0  0  0  0  0  0  0
    5.9730   -4.0822    0.0000 C   0  0  0  0  0  0  0  0  0  0  0  0
    4.6740   -4.8322    0.0000 C   0  0  0  0  0  0  0  0  0  0  0  0
    3.3037   -4.2221    0.0000 C   0  0  0  0  0  0  0  0  0  0  0  0
    2.0046   -4.9721    0.0000 C   0  0  0  0  0  0  0  0  0  0  0  0
    0.8899   -3.9684    0.0000 S   0  0  0  0  0  0  0  0  0  0  0  0
    1.5000   -2.5981    0.0000 C   0  0  0  0  0  0  0  0  0  0  0  0
    0.7500   -1.2990    0.0000 C   0  0  0  0  0  0  0  0  0  0  0  0
    1.5000    0.0000    0.0000 C   0  0  0  0  0  0  0  0  0  0  0  0
    0.7500    1.2990    0.0000 C   0  0  0  0  0  0  0  0  0  0  0  0
   -0.7500    1.2990    0.0000 C   0  0  0  0  0  0  0  0  0  0  0  0
   -1.5000    0.0000    0.0000 N   0  0  0  0  0  0  0  0  0  0  0  0
   -0.7500   -1.2990    0.0000 N   0  0  0  0  0  0  0  0  0  0  0  0
    2.9918   -2.7549    0.0000 N   0  0  0  0  0  0  0  0  0  0  0  0
    4.9858   -6.2994    0.0000 N   0  0  0  0  0  0  0  0  0  0  0  0
    6.4776   -6.4562    0.0000 C   0  0  0  0  0  0  0  0  0  0  0  0
    7.2276   -7.7552    0.0000 C   0  0  0  0  0  0  0  0  0  0  0  0
    8.7276   -7.7552    0.0000 O   0  0  0  0  0  0  0  0  0  0  0  0
    6.4776   -9.0543    0.0000 N   0  0  0  0  0  0  0  0  0  0  0  0
    7.2276  -10.3533    0.0000 C   0  0  0  0  0  0  0  0  0  0  0  0
    8.7194  -10.5101    0.0000 C   0  0  0  0  0  0  0  0  0  0  0  0
    9.0313  -11.9773    0.0000 C   0  0  0  0  0  0  0  0  0  0  0  0
    7.7322  -12.7273    0.0000 C   0  0  0  0  0  0  0  0  0  0  0  0
    6.6175  -11.7236    0.0000 N   0  0  0  0  0  0  0  0  0  0  0  0
    5.1503  -12.0355    0.0000 C   0  0  0  0  0  0  0  0  0  0  0  0
    4.6868  -13.4621    0.0000 N   0  0  0  0  0  0  0  0  0  0  0  0
    4.1466  -10.9208    0.0000 O   0  0  0  0  0  0  0  0  0  0  0  0
    7.0877   -5.0859    0.0000 S   0  0  0  0  0  0  0  0  0  0  0  0
  1  2  1  0
  2  3  2  0
  3  4  1  0
  4  5  2  0
  5  6  1  0
  6  7  1  0
  7  8  1  0
  8  9  2  0
  9 10  1  0
 10 11  2  0
 11 12  1  0
 12 13  2  0
  7 14  2  0
  3 15  1  0
 15 16  2  0
 16 17  1  0
 17 18  2  0
 17 19  1  0
 20 19  1  1
 20 21  1  0
 21 22  1  0
 22 23  1  0
 23 24  1  0
 24 25  1  0
 25 26  1  0
 25 27  2  0
 16 28  1  0
 28  2  1  0
 14  4  1  0
 24 20  1  0
 13  8  1  0
M  END

