
     RDKit          2D

 32 35  0  0  0  0  0  0  0  0999 V2000
    6.3767    3.5094    0.0000 N   0  0  0  0  0  0  0  0  0  0  0  0
    4.9859    4.0713    0.0000 C   0  0  0  0  0  0  0  0  0  0  0  0
    5.7808    5.3434    0.0000 C   0  0  0  0  0  0  0  0  0  0  0  0
    7.2799    5.2910    0.0000 C   0  0  0  0  0  0  0  0  0  0  0  0
    8.0748    6.5631    0.0000 S   0  0  0  0  0  0  0  0  0  0  0  0
    8.8696    7.8352    0.0000 N   0  0  0  0  0  0  0  0  0  0  0  0
    9.3468    5.7682    0.0000 O   0  0  0  0  0  0  0  0  0  0  0  0
    6.8027    7.3580    0.0000 O   0  0  0  0  0  0  0  0  0  0  0  0
    5.0766    6.6678    0.0000 N   0  0  0  0  0  0  0  0  0  0  0  0
    3.5775    6.7202    0.0000 C   0  0  0  0  0  0  0  0  0  0  0  0
    2.7826    5.4481    0.0000 O   0  0  0  0  0  0  0  0  0  0  0  0
    2.8733    8.0446    0.0000 C   0  0  0  0  0  0  0  0  0  0  0  0
    1.3742    8.0969    0.0000 C   0  0  0  0  0  0  0  0  0  0  0  0
    0.6700    9.4214    0.0000 C   0  0  0  0  0  0  0  0  0  0  0  0
    1.4649   10.6934    0.0000 C   0  0  0  0  0  0  0  0  0  0  0  0
    0.7607   12.0179    0.0000 Cl  0  0  0  0  0  0  0  0  0  0  0  0
    2.9640   10.6411    0.0000 C   0  0  0  0  0  0  0  0  0  0  0  0
    3.6682    9.3167    0.0000 C   0  0  0  0  0  0  0  0  0  0  0  0
    3.8712    5.0750    0.0000 C   0  0  0  0  0  0  0  0  0  0  0  0
    2.4446    4.6115    0.0000 C   0  0  0  0  0  0  0  0  0  0  0  0
    2.1328    3.1443    0.0000 N   0  0  0  0  0  0  0  0  0  0  0  0
    0.7062    2.6807    0.0000 C   0  0  0  0  0  0  0  0  0  0  0  0
   -0.4086    3.6844    0.0000 N   0  0  0  0  0  0  0  0  0  0  0  0
   -1.8351    3.2209    0.0000 C   0  0  0  0  0  0  0  0  0  0  0  0
   -2.1470    1.7537    0.0000 N   0  0  0  0  0  0  0  0  0  0  0  0
   -1.0323    0.7500    0.0000 C   0  0  0  0  0  0  0  0  0  0  0  0
    0.3943    1.2135    0.0000 C   0  0  0  0  0  0  0  0  0  0  0  0
    1.2760    0.0000    0.0000 C   0  0  0  0  0  0  0  0  0  0  0  0
    0.3943   -1.2135    0.0000 C   0  0  0  0  0  0  0  0  0  0  0  0
   -1.0323   -0.7500    0.0000 N   0  0  0  0  0  0  0  0  0  0  0  0
    3.2475    2.1406    0.0000 C   0  0  0  0  0  0  0  0  0  0  0  0
    4.6741    2.6041    0.0000 C   0  0  0  0  0  0  0  0  0  0  0  0
  1  2  1  0
  2  3  1  0
  3  4  1  0
  4  5  1  0
  5  6  1  0
  5  7  2  0
  5  8  2  0
  3  9  1  0
  9 10  1  0
 10 11  2  0
 10 12  1  0
 12 13  2  0
 13 14  1  0
 14 15  2  0
 15 16  1  0
 15 17  1  0
 17 18  2  0
  2 19  1  0
 19 20  1  0
 20 21  1  0
 21 22  1  0
 22 23  2  0
 23 24  1  0
 24 25  2  0
 25 26  1  0
 26 27  2  0
 27 28  1  0
 28 29  2  0
 29 30  1  0
 21 31  1  0
 31 32  1  0
 32  2  1  0
 18 12  1  0
 27 22  1  0
 30 26  1  0
M  END

