
     RDKit          2D

 27 30  0  0  0  0  0  0  0  0999 V2000
    5.2020    6.2011    0.0000 C   0  0  0  0  0  0  0  0  0  0  0  0
    3.9030    5.4511    0.0000 C   0  0  0  0  0  0  0  0  0  0  0  0
    2.5327    6.0612    0.0000 C   0  0  0  0  0  0  0  0  0  0  0  0
    2.2208    7.5284    0.0000 C   0  0  0  0  0  0  0  0  0  0  0  0
    0.8505    8.1385    0.0000 N   0  0  0  0  0  0  0  0  0  0  0  0
    1.0073    9.6303    0.0000 O   0  0  0  0  0  0  0  0  0  0  0  0
    2.4745    9.9422    0.0000 C   0  0  0  0  0  0  0  0  0  0  0  0
    3.0846   11.3125    0.0000 C   0  0  0  0  0  0  0  0  0  0  0  0
    1.7143   11.9226    0.0000 C   0  0  0  0  0  0  0  0  0  0  0  0
    4.4549   10.7024    0.0000 C   0  0  0  0  0  0  0  0  0  0  0  0
    3.6947   12.6828    0.0000 N   0  0  0  0  0  0  0  0  0  0  0  0
    3.2245    8.6431    0.0000 C   0  0  0  0  0  0  0  0  0  0  0  0
    1.5290    4.9465    0.0000 S   0  0  0  0  0  0  0  0  0  0  0  0
    2.2790    3.6474    0.0000 C   0  0  0  0  0  0  0  0  0  0  0  0
    1.6689    2.2771    0.0000 C   0  0  0  0  0  0  0  0  0  0  0  0
    2.5506    1.0636    0.0000 O   0  0  0  0  0  0  0  0  0  0  0  0
    0.1771    2.1203    0.0000 N   0  0  0  0  0  0  0  0  0  0  0  0
   -0.4330    0.7500    0.0000 C   0  0  0  0  0  0  0  0  0  0  0  0
    0.8660    0.0000    0.0000 C   0  0  0  0  0  0  0  0  0  0  0  0
   -0.4330   -0.7500    0.0000 C   0  0  0  0  0  0  0  0  0  0  0  0
   -1.8596   -1.2135    0.0000 C   0  0  0  0  0  0  0  0  0  0  0  0
   -2.7413    0.0000    0.0000 C   0  0  0  0  0  0  0  0  0  0  0  0
   -1.8596    1.2135    0.0000 N   0  0  0  0  0  0  0  0  0  0  0  0
   -2.3231    2.6401    0.0000 C   0  0  0  0  0  0  0  0  0  0  0  0
   -3.7903    2.9520    0.0000 N   0  0  0  0  0  0  0  0  0  0  0  0
   -1.3194    3.7548    0.0000 O   0  0  0  0  0  0  0  0  0  0  0  0
    3.7462    3.9593    0.0000 N   0  0  0  0  0  0  0  0  0  0  0  0
  1  2  1  0
  2  3  2  0
  3  4  1  0
  4  5  2  0
  5  6  1  0
  6  7  1  0
  7  8  1  0
  8  9  1  0
  8 10  1  0
  8 11  1  0
  7 12  2  0
  3 13  1  0
 13 14  1  0
 14 15  1  0
 15 16  2  0
 15 17  1  0
 18 17  1  6
 18 19  1  0
 20 19  1  1
 20 21  1  0
 21 22  1  0
 22 23  1  0
 23 24  1  0
 24 25  1  0
 24 26  2  0
 14 27  2  0
 27  2  1  0
 12  4  1  0
 20 18  1  0
 23 18  1  0
M  END

