
     RDKit          2D

 33 36  0  0  0  0  0  0  0  0999 V2000
    9.3773   17.1894    0.0000 C   0  0  0  0  0  0  0  0  0  0  0  0
    8.5825   15.9173    0.0000 N   0  0  0  0  0  0  0  0  0  0  0  0
    9.2867   14.5929    0.0000 C   0  0  0  0  0  0  0  0  0  0  0  0
   10.7857   14.5406    0.0000 C   0  0  0  0  0  0  0  0  0  0  0  0
   11.4900   13.2162    0.0000 C   0  0  0  0  0  0  0  0  0  0  0  0
   10.6951   11.9441    0.0000 C   0  0  0  0  0  0  0  0  0  0  0  0
   11.3993   10.6197    0.0000 N   0  0  0  0  0  0  0  0  0  0  0  0
   12.8984   10.5673    0.0000 C   0  0  0  0  0  0  0  0  0  0  0  0
   10.6044    9.3476    0.0000 C   0  0  0  0  0  0  0  0  0  0  0  0
    9.1053    9.3999    0.0000 C   0  0  0  0  0  0  0  0  0  0  0  0
    8.3104    8.1279    0.0000 C   0  0  0  0  0  0  0  0  0  0  0  0
    6.8114    8.1802    0.0000 C   0  0  0  0  0  0  0  0  0  0  0  0
    6.0165    6.9081    0.0000 N   0  0  0  0  0  0  0  0  0  0  0  0
    4.5174    6.9605    0.0000 C   0  0  0  0  0  0  0  0  0  0  0  0
    3.8132    8.2849    0.0000 O   0  0  0  0  0  0  0  0  0  0  0  0
    3.7225    5.6884    0.0000 N   0  0  0  0  0  0  0  0  0  0  0  0
    4.4267    4.3640    0.0000 C   0  0  0  0  0  0  0  0  0  0  0  0
    3.6318    3.0919    0.0000 C   0  0  0  0  0  0  0  0  0  0  0  0
    2.1328    3.1443    0.0000 C   0  0  0  0  0  0  0  0  0  0  0  0
    2.3415    1.6589    0.0000 N   0  0  0  0  0  0  0  0  0  0  0  0
    0.7062    2.6807    0.0000 C   0  0  0  0  0  0  0  0  0  0  0  0
   -0.4086    3.6844    0.0000 N   0  0  0  0  0  0  0  0  0  0  0  0
   -1.8351    3.2209    0.0000 C   0  0  0  0  0  0  0  0  0  0  0  0
   -2.1470    1.7537    0.0000 N   0  0  0  0  0  0  0  0  0  0  0  0
   -1.0323    0.7500    0.0000 C   0  0  0  0  0  0  0  0  0  0  0  0
    0.3943    1.2135    0.0000 C   0  0  0  0  0  0  0  0  0  0  0  0
    1.2760    0.0000    0.0000 C   0  0  0  0  0  0  0  0  0  0  0  0
    0.3943   -1.2135    0.0000 C   0  0  0  0  0  0  0  0  0  0  0  0
   -1.0323   -0.7500    0.0000 N   0  0  0  0  0  0  0  0  0  0  0  0
    1.4285    4.4687    0.0000 C   0  0  0  0  0  0  0  0  0  0  0  0
    2.2234    5.7408    0.0000 C   0  0  0  0  0  0  0  0  0  0  0  0
    9.1960   11.9964    0.0000 C   0  0  0  0  0  0  0  0  0  0  0  0
    8.4918   13.3208    0.0000 C   0  0  0  0  0  0  0  0  0  0  0  0
  1  2  1  0
  2  3  1  0
  3  4  2  0
  4  5  1  0
  5  6  2  0
  6  7  1  0
  7  8  1  0
  7  9  1  0
  9 10  1  0
 10 11  1  0
 11 12  1  0
 12 13  1  0
 13 14  1  0
 14 15  2  0
 14 16  1  0
 16 17  1  0
 17 18  1  0
 18 19  1  0
 19 20  1  0
 19 21  1  0
 21 22  2  0
 22 23  1  0
 23 24  2  0
 24 25  1  0
 25 26  2  0
 26 27  1  0
 27 28  2  0
 28 29  1  0
 19 30  1  0
 30 31  1  0
  6 32  1  0
 32 33  2  0
 33  3  1  0
 31 16  1  0
 26 21  1  0
 29 25  1  0
M  END

