
     RDKit          2D

 47 51  0  0  0  0  0  0  0  0999 V2000
   -1.5000   -2.5981    0.0000 F   0  0  0  0  0  0  0  0  0  0  0  0
    0.7500   -1.2990    0.0000 C   0  0  0  0  0  0  0  0  0  0  0  0
    1.5000    0.0000    0.0000 C   0  0  0  0  0  0  0  0  0  0  0  0
    0.7500    1.2990    0.0000 C   0  0  0  0  0  0  0  0  0  0  0  0
   -0.7500    1.2990    0.0000 C   0  0  0  0  0  0  0  0  0  0  0  0
   -1.5000    0.0000    0.0000 C   0  0  0  0  0  0  0  0  0  0  0  0
   -0.7500   -1.2990    0.0000 C   0  0  0  0  0  0  0  0  0  0  0  0
   -0.7500    6.4952    0.0000 S   0  0  0  0  0  0  0  0  0  0  0  0
   -1.5000    5.1962    0.0000 C   0  0  0  0  0  0  0  0  0  0  0  0
   -0.7500    3.8971    0.0000 C   0  0  0  0  0  0  0  0  0  0  0  0
   -1.5000    2.5981    0.0000 C   0  0  0  0  0  0  0  0  0  0  0  0
   -3.3037    9.4182    0.0000 C   0  0  0  0  0  0  0  0  0  0  0  0
   -2.0046   10.1682    0.0000 C   0  0  0  0  0  0  0  0  0  0  0  0
   -0.8899    9.1645    0.0000 C   0  0  0  0  0  0  0  0  0  0  0  0
   -1.5000    7.7942    0.0000 C   0  0  0  0  0  0  0  0  0  0  0  0
   -2.9918    7.9510    0.0000 O   0  0  0  0  0  0  0  0  0  0  0  0
   -7.2578    9.7568    0.0000 C   0  0  0  0  0  0  0  0  0  0  0  0
   -7.4146   11.2486    0.0000 N   0  0  0  0  0  0  0  0  0  0  0  0
   -6.2011   12.1302    0.0000 C   0  0  0  0  0  0  0  0  0  0  0  0
   -4.8308   11.5201    0.0000 N   0  0  0  0  0  0  0  0  0  0  0  0
   -4.6740   10.0283    0.0000 C   0  0  0  0  0  0  0  0  0  0  0  0
   -5.8875    9.1467    0.0000 N   0  0  0  0  0  0  0  0  0  0  0  0
   -6.3579   13.6220    0.0000 N   0  0  0  0  0  0  0  0  0  0  0  0
   -8.4713    8.8751    0.0000 C   0  0  0  0  0  0  0  0  0  0  0  0
    1.5000   -2.5981    0.0000 C   0  0  0  0  0  0  0  0  0  0  0  0
    0.0905   -3.1111    0.0000 C   0  0  0  0  0  0  0  0  0  0  0  0
   -0.1700   -4.5883    0.0000 C   0  0  0  0  0  0  0  0  0  0  0  0
    0.9791   -5.5525    0.0000 O   0  0  0  0  0  0  0  0  0  0  0  0
    2.3886   -5.0395    0.0000 C   0  0  0  0  0  0  0  0  0  0  0  0
    2.6491   -3.5623    0.0000 C   0  0  0  0  0  0  0  0  0  0  0  0
    4.9472    0.2945    0.0000 N   0  0  0  0  0  0  0  0  0  0  0  0
    5.2077   -1.1827    0.0000 C   0  0  0  0  0  0  0  0  0  0  0  0
    4.0586   -2.1469    0.0000 C   0  0  0  0  0  0  0  0  0  0  0  0
    2.6491   -1.6339    0.0000 N   0  0  0  0  0  0  0  0  0  0  0  0
    2.3886   -0.1567    0.0000 C   0  0  0  0  0  0  0  0  0  0  0  0
    3.5377    0.8075    0.0000 C   0  0  0  0  0  0  0  0  0  0  0  0
    9.8039    2.6740    0.0000 C   0  0  0  0  0  0  0  0  0  0  0  0
    8.6549    1.7098    0.0000 C   0  0  0  0  0  0  0  0  0  0  0  0
    8.9153    0.2326    0.0000 C   0  0  0  0  0  0  0  0  0  0  0  0
   10.3249   -0.2804    0.0000 C   0  0  0  0  0  0  0  0  0  0  0  0
    7.2453    2.2228    0.0000 N   0  0  0  0  0  0  0  0  0  0  0  0
    6.9849    3.7000    0.0000 C   0  0  0  0  0  0  0  0  0  0  0  0
    6.0963    1.2586    0.0000 S   0  0  0  0  0  0  0  0  0  0  0  0
    7.0604    0.1096    0.0000 O   0  0  0  0  0  0  0  0  0  0  0  0
    5.1321    2.4077    0.0000 O   0  0  0  0  0  0  0  0  0  0  0  0
   11.9949   -2.2707    0.0000 C   0  0  0  0  0  0  0  0  0  0  0  0
   10.5854   -1.7577    0.0000 O   0  0  0  0  0  0  0  0  0  0  0  0
  2  3  2  0
  3  4  1  0
  4  5  2  0
  5  6  1  0
  6  7  2  0
  7  2  1  0
  8  9  1  0
  9 10  1  0
 10 11  1  0
 12 13  2  0
 13 14  1  0
 14 15  2  0
 15 16  1  0
 16 12  1  0
 17 18  2  0
 18 19  1  0
 19 20  2  0
 20 21  1  0
 21 22  2  0
 22 17  1  0
 25 26  1  0
 26 27  1  0
 27 28  1  0
 28 29  1  0
 29 30  1  0
 30 25  1  0
 31 32  1  0
 32 33  1  0
 33 34  1  0
 34 35  1  0
 35 36  1  0
 36 31  1  0
 38 37  1  6
 38 39  1  0
 39 40  1  0
 38 41  1  0
 41 42  1  0
 41 43  1  0
 43 44  2  0
 43 45  2  0
 46 47  1  0
  1  7  1  0
  5 11  1  0
  8 15  1  0
 12 21  1  0
 19 23  1  0
 17 24  1  0
  2 25  1  0
 25 34  1  0
 31 43  1  0
 40 47  1  0
M  ISO  1   1  18
M  END

