
     RDKit          2D

 33 37  0  0  0  0  0  0  0  0999 V2000
    6.1298   -2.5904    0.0000 C   0  0  0  0  0  0  0  0  0  0  0  0
    5.9730   -4.0822    0.0000 C   0  0  0  0  0  0  0  0  0  0  0  0
    4.6740   -4.8322    0.0000 C   0  0  0  0  0  0  0  0  0  0  0  0
    3.3037   -4.2221    0.0000 C   0  0  0  0  0  0  0  0  0  0  0  0
    2.0046   -4.9721    0.0000 C   0  0  0  0  0  0  0  0  0  0  0  0
    0.8899   -3.9684    0.0000 S   0  0  0  0  0  0  0  0  0  0  0  0
    1.5000   -2.5981    0.0000 C   0  0  0  0  0  0  0  0  0  0  0  0
    0.7500   -1.2990    0.0000 C   0  0  0  0  0  0  0  0  0  0  0  0
    1.5000    0.0000    0.0000 C   0  0  0  0  0  0  0  0  0  0  0  0
    0.7500    1.2990    0.0000 C   0  0  0  0  0  0  0  0  0  0  0  0
   -0.7500    1.2990    0.0000 C   0  0  0  0  0  0  0  0  0  0  0  0
   -1.5000    0.0000    0.0000 C   0  0  0  0  0  0  0  0  0  0  0  0
   -0.7500   -1.2990    0.0000 C   0  0  0  0  0  0  0  0  0  0  0  0
   -1.5000   -2.5981    0.0000 F   0  0  0  0  0  0  0  0  0  0  0  0
    2.9918   -2.7549    0.0000 N   0  0  0  0  0  0  0  0  0  0  0  0
    4.9858   -6.2994    0.0000 S   0  0  0  0  0  0  0  0  0  0  0  0
    6.4776   -6.4562    0.0000 C   0  0  0  0  0  0  0  0  0  0  0  0
    7.2276   -7.7552    0.0000 C   0  0  0  0  0  0  0  0  0  0  0  0
    8.7194   -7.9120    0.0000 C   0  0  0  0  0  0  0  0  0  0  0  0
    9.0313   -9.3793    0.0000 C   0  0  0  0  0  0  0  0  0  0  0  0
   10.4016   -9.9894    0.0000 O   0  0  0  0  0  0  0  0  0  0  0  0
    7.7322  -10.1293    0.0000 N   0  0  0  0  0  0  0  0  0  0  0  0
    7.5754  -11.6210    0.0000 C   0  0  0  0  0  0  0  0  0  0  0  0
    8.6902  -12.6247    0.0000 C   0  0  0  0  0  0  0  0  0  0  0  0
    8.0801  -13.9951    0.0000 C   0  0  0  0  0  0  0  0  0  0  0  0
    6.5883  -13.8383    0.0000 C   0  0  0  0  0  0  0  0  0  0  0  0
    6.2764  -12.3710    0.0000 N   0  0  0  0  0  0  0  0  0  0  0  0
    4.9061  -11.7609    0.0000 C   0  0  0  0  0  0  0  0  0  0  0  0
    3.6926  -12.6426    0.0000 N   0  0  0  0  0  0  0  0  0  0  0  0
    4.7493  -10.2692    0.0000 O   0  0  0  0  0  0  0  0  0  0  0  0
    6.6175   -9.1256    0.0000 C   0  0  0  0  0  0  0  0  0  0  0  0
    5.1503   -9.4374    0.0000 O   0  0  0  0  0  0  0  0  0  0  0  0
    7.0877   -5.0859    0.0000 N   0  0  0  0  0  0  0  0  0  0  0  0
  1  2  1  0
  2  3  2  0
  3  4  1  0
  4  5  2  0
  5  6  1  0
  6  7  1  0
  7  8  1  0
  8  9  2  0
  9 10  1  0
 10 11  2  0
 11 12  1  0
 12 13  2  0
 13 14  1  0
  7 15  2  0
  3 16  1  0
 16 17  1  0
 17 18  1  0
 18 19  2  0
 19 20  1  0
 20 21  2  0
 20 22  1  0
 23 22  1  1
 23 24  1  0
 24 25  1  0
 25 26  1  0
 26 27  1  0
 27 28  1  0
 28 29  1  0
 28 30  2  0
 22 31  1  0
 31 32  2  0
 17 33  2  0
 33  2  1  0
 15  4  1  0
 31 18  1  0
 13  8  1  0
 27 23  1  0
M  ISO  1  14  18
M  END

