
     RDKit          2D

 28 31  0  0  0  0  0  0  0  0999 V2000
    0.5734   -4.1918    0.0000 F   0  0  0  0  0  0  0  0  0  0  0  0
   -3.3945   -4.1152    0.0000 C   0  0  0  0  0  0  0  0  0  0  0  0
   -3.7063   -5.5824    0.0000 C   0  0  0  0  0  0  0  0  0  0  0  0
   -2.5916   -6.5861    0.0000 N   0  0  0  0  0  0  0  0  0  0  0  0
   -1.1650   -6.1226    0.0000 C   0  0  0  0  0  0  0  0  0  0  0  0
   -0.8532   -4.6554    0.0000 C   0  0  0  0  0  0  0  0  0  0  0  0
   -1.9679   -3.6517    0.0000 C   0  0  0  0  0  0  0  0  0  0  0  0
   -3.5055   -1.9968    0.0000 O   0  0  0  0  0  0  0  0  0  0  0  0
   -4.5092   -3.1115    0.0000 S   0  0  0  0  0  0  0  0  0  0  0  0
   -5.5129   -4.2262    0.0000 O   0  0  0  0  0  0  0  0  0  0  0  0
   -5.6239   -2.1078    0.0000 N   0  0  0  0  0  0  0  0  0  0  0  0
   -6.4268    0.3631    0.0000 C   0  0  0  0  0  0  0  0  0  0  0  0
   -6.1149    1.8303    0.0000 N   0  0  0  0  0  0  0  0  0  0  0  0
   -4.6883    2.2939    0.0000 C   0  0  0  0  0  0  0  0  0  0  0  0
   -3.5736    1.2902    0.0000 C   0  0  0  0  0  0  0  0  0  0  0  0
   -3.8855   -0.1771    0.0000 C   0  0  0  0  0  0  0  0  0  0  0  0
   -5.3120   -0.6406    0.0000 C   0  0  0  0  0  0  0  0  0  0  0  0
   -2.1470    1.7537    0.0000 C   0  0  0  0  0  0  0  0  0  0  0  0
   -1.8351    3.2209    0.0000 C   0  0  0  0  0  0  0  0  0  0  0  0
   -0.4086    3.6844    0.0000 C   0  0  0  0  0  0  0  0  0  0  0  0
    0.7062    2.6807    0.0000 C   0  0  0  0  0  0  0  0  0  0  0  0
    0.3943    1.2135    0.0000 C   0  0  0  0  0  0  0  0  0  0  0  0
    1.2760    0.0000    0.0000 C   0  0  0  0  0  0  0  0  0  0  0  0
    0.3943   -1.2135    0.0000 C   0  0  0  0  0  0  0  0  0  0  0  0
   -1.0323   -0.7500    0.0000 N   0  0  0  0  0  0  0  0  0  0  0  0
   -1.0323    0.7500    0.0000 N   0  0  0  0  0  0  0  0  0  0  0  0
   -8.9681    0.9033    0.0000 C   0  0  0  0  0  0  0  0  0  0  0  0
   -7.8533   -0.1004    0.0000 O   0  0  0  0  0  0  0  0  0  0  0  0
  2  3  2  0
  3  4  1  0
  4  5  2  0
  5  6  1  0
  6  7  2  0
  7  2  1  0
  8  9  2  0
  9 10  2  0
  9 11  1  0
 12 13  2  0
 13 14  1  0
 14 15  2  0
 15 16  1  0
 16 17  2  0
 17 12  1  0
 18 19  2  0
 19 20  1  0
 20 21  2  0
 21 22  1  0
 22 23  2  0
 23 24  1  0
 24 25  2  0
 25 26  1  0
 26 18  1  0
 26 22  1  0
 27 28  1  0
  1  6  1  0
  2  9  1  0
 11 17  1  0
 15 18  1  0
 12 28  1  0
M  ISO  1  27  11
M  END

