
     RDKit          2D

 30 34  0  0  0  0  0  0  0  0999 V2000
   -2.1470    1.7537    0.0000 C   0  0  0  0  0  0  0  0  0  0  0  0
   -1.8351    3.2209    0.0000 C   0  0  0  0  0  0  0  0  0  0  0  0
   -0.4086    3.6844    0.0000 C   0  0  0  0  0  0  0  0  0  0  0  0
    0.7062    2.6807    0.0000 C   0  0  0  0  0  0  0  0  0  0  0  0
    0.3943    1.2135    0.0000 C   0  0  0  0  0  0  0  0  0  0  0  0
    1.2760    0.0000    0.0000 N   0  0  0  0  0  0  0  0  0  0  0  0
    0.3943   -1.2135    0.0000 C   0  0  0  0  0  0  0  0  0  0  0  0
   -1.0323   -0.7500    0.0000 C   0  0  0  0  0  0  0  0  0  0  0  0
   -1.0323    0.7500    0.0000 C   0  0  0  0  0  0  0  0  0  0  0  0
   -6.1149    1.8303    0.0000 C   0  0  0  0  0  0  0  0  0  0  0  0
   -6.4268    0.3631    0.0000 C   0  0  0  0  0  0  0  0  0  0  0  0
   -5.3120   -0.6406    0.0000 C   0  0  0  0  0  0  0  0  0  0  0  0
   -3.8855   -0.1771    0.0000 N   0  0  0  0  0  0  0  0  0  0  0  0
   -3.5736    1.2902    0.0000 C   0  0  0  0  0  0  0  0  0  0  0  0
   -4.6883    2.2939    0.0000 N   0  0  0  0  0  0  0  0  0  0  0  0
   -5.6239   -2.1078    0.0000 C   0  0  0  0  0  0  0  0  0  0  0  0
   -6.2340   -3.4781    0.0000 C   0  0  0  0  0  0  0  0  0  0  0  0
   -5.1193   -4.4818    0.0000 C   0  0  0  0  0  0  0  0  0  0  0  0
   -3.8203   -3.7318    0.0000 C   0  0  0  0  0  0  0  0  0  0  0  0
   -4.1321   -2.2646    0.0000 C   0  0  0  0  0  0  0  0  0  0  0  0
   -8.4771   -1.1807    0.0000 C   0  0  0  0  0  0  0  0  0  0  0  0
   -7.0505   -1.6443    0.0000 S   0  0  0  0  0  0  0  0  0  0  0  0
   -7.5140   -3.0709    0.0000 O   0  0  0  0  0  0  0  0  0  0  0  0
   -6.9564   -0.2976    0.0000 O   0  0  0  0  0  0  0  0  0  0  0  0
   -7.0728    4.3258    0.0000 C   0  0  0  0  0  0  0  0  0  0  0  0
   -8.4431    4.9359    0.0000 C   0  0  0  0  0  0  0  0  0  0  0  0
   -9.4468    3.8212    0.0000 C   0  0  0  0  0  0  0  0  0  0  0  0
   -8.6968    2.5222    0.0000 C   0  0  0  0  0  0  0  0  0  0  0  0
   -7.2296    2.8340    0.0000 N   0  0  0  0  0  0  0  0  0  0  0  0
   -5.7738    5.0758    0.0000 C   0  0  0  0  0  0  0  0  0  0  0  0
  1  2  2  0
  2  3  1  0
  3  4  2  0
  4  5  1  0
  5  6  1  0
  6  7  1  0
  7  8  2  0
  8  9  1  0
  9  1  1  0
  9  5  2  0
 10 11  2  0
 11 12  1  0
 12 13  2  0
 13 14  1  0
 14 15  2  0
 15 10  1  0
 16 17  1  0
 17 18  1  0
 18 19  1  0
 19 20  1  0
 20 16  1  0
 21 22  1  0
 22 23  2  0
 22 24  2  0
 25 26  1  0
 26 27  1  0
 27 28  1  0
 28 29  1  0
 29 25  1  0
  1 14  1  0
 12 16  1  0
 16 22  1  0
 10 29  1  0
 25 30  1  1
M  END

