
     RDKit          2D

 29 31  0  0  0  0  0  0  0  0999 V2000
   -2.8432   -1.4918    0.0000 C   0  0  0  0  0  0  0  0  0  0  0  0
   -2.8432    1.4918    0.0000 N   0  0  0  0  0  0  0  0  0  0  0  0
   -4.2135    2.1019    0.0000 C   0  0  0  0  0  0  0  0  0  0  0  0
   -5.2172    0.9872    0.0000 C   0  0  0  0  0  0  0  0  0  0  0  0
   -4.4672   -0.3119    0.0000 C   0  0  0  0  0  0  0  0  0  0  0  0
   -3.0000    0.0000    0.0000 C   0  0  0  0  0  0  0  0  0  0  0  0
    0.7500   -1.2990    0.0000 C   0  0  0  0  0  0  0  0  0  0  0  0
    1.5000    0.0000    0.0000 N   0  0  0  0  0  0  0  0  0  0  0  0
    0.7500    1.2990    0.0000 C   0  0  0  0  0  0  0  0  0  0  0  0
   -0.7500    1.2990    0.0000 N   0  0  0  0  0  0  0  0  0  0  0  0
   -1.5000    0.0000    0.0000 C   0  0  0  0  0  0  0  0  0  0  0  0
   -0.7500   -1.2990    0.0000 N   0  0  0  0  0  0  0  0  0  0  0  0
    4.5000    2.5981    0.0000 C   0  0  0  0  0  0  0  0  0  0  0  0
    3.0000    2.5981    0.0000 S   0  0  0  0  0  0  0  0  0  0  0  0
    3.0000    1.0981    0.0000 O   0  0  0  0  0  0  0  0  0  0  0  0
    3.0000    4.0981    0.0000 O   0  0  0  0  0  0  0  0  0  0  0  0
    1.5000    2.5981    0.0000 C   0  0  0  0  0  0  0  0  0  0  0  0
    1.5000   -2.5981    0.0000 C   0  0  0  0  0  0  0  0  0  0  0  0
    2.9918   -2.7549    0.0000 C   0  0  0  0  0  0  0  0  0  0  0  0
    3.3037   -4.2221    0.0000 C   0  0  0  0  0  0  0  0  0  0  0  0
    2.0046   -4.9721    0.0000 C   0  0  0  0  0  0  0  0  0  0  0  0
    0.8899   -3.9684    0.0000 N   0  0  0  0  0  0  0  0  0  0  0  0
    1.0539    6.7418    0.0000 C   0  0  0  0  0  0  0  0  0  0  0  0
   -0.2451    5.9918    0.0000 C   0  0  0  0  0  0  0  0  0  0  0  0
   -1.5442    6.7418    0.0000 C   0  0  0  0  0  0  0  0  0  0  0  0
   -0.2451    4.4918    0.0000 N   0  0  0  0  0  0  0  0  0  0  0  0
   -1.5442    3.7418    0.0000 C   0  0  0  0  0  0  0  0  0  0  0  0
   -2.8432    4.4918    0.0000 O   0  0  0  0  0  0  0  0  0  0  0  0
   -1.5442    2.2418    0.0000 N   0  0  0  0  0  0  0  0  0  0  0  0
  2  3  1  0
  3  4  1  0
  4  5  1  0
  5  6  1  0
  6  2  1  0
  7  8  2  0
  8  9  1  0
  9 10  2  0
 10 11  1  0
 11 12  2  0
 12  7  1  0
 13 14  1  0
 14 15  2  0
 14 16  2  0
 14 17  1  0
 18 19  2  0
 19 20  1  0
 20 21  2  0
 21 22  1  0
 22 18  1  0
 23 24  1  0
 24 25  1  0
 24 26  1  0
 26 27  1  0
 27 28  2  0
 27 29  1  0
  6  1  1  1
  6 11  1  0
  9 17  1  0
  7 18  1  0
  2 29  1  0
M  END

