
     RDKit          2D

 44 48  0  0  0  0  0  0  0  0999 V2000
   -8.4713    3.6789    0.0000 C   0  0  0  0  0  0  0  0  0  0  0  0
   -7.2578    4.5606    0.0000 N   0  0  0  0  0  0  0  0  0  0  0  0
   -7.4146    6.0524    0.0000 C   0  0  0  0  0  0  0  0  0  0  0  0
   -5.8875    3.9505    0.0000 C   0  0  0  0  0  0  0  0  0  0  0  0
   -4.6740    4.8322    0.0000 C   0  0  0  0  0  0  0  0  0  0  0  0
   -2.0046    4.9721    0.0000 C   0  0  0  0  0  0  0  0  0  0  0  0
   -0.8899    3.9684    0.0000 C   0  0  0  0  0  0  0  0  0  0  0  0
   -1.5000    2.5981    0.0000 C   0  0  0  0  0  0  0  0  0  0  0  0
   -2.9918    2.7549    0.0000 N   0  0  0  0  0  0  0  0  0  0  0  0
   -3.3037    4.2221    0.0000 N   0  0  0  0  0  0  0  0  0  0  0  0
    1.5000    0.0000    0.0000 C   0  0  0  0  0  0  0  0  0  0  0  0
    0.7500   -1.2990    0.0000 N   0  0  0  0  0  0  0  0  0  0  0  0
   -0.7500   -1.2990    0.0000 C   0  0  0  0  0  0  0  0  0  0  0  0
   -1.5000    0.0000    0.0000 C   0  0  0  0  0  0  0  0  0  0  0  0
   -0.7500    1.2990    0.0000 C   0  0  0  0  0  0  0  0  0  0  0  0
    0.7500    1.2990    0.0000 N   0  0  0  0  0  0  0  0  0  0  0  0
   -4.5000    0.0000    0.0000 F   0  0  0  0  0  0  0  0  0  0  0  0
   -3.0000    0.0000    0.0000 C   0  0  0  0  0  0  0  0  0  0  0  0
   -3.0000    1.5000    0.0000 F   0  0  0  0  0  0  0  0  0  0  0  0
   -3.0000   -1.5000    0.0000 F   0  0  0  0  0  0  0  0  0  0  0  0
    9.7500   -3.8971    0.0000 F   0  0  0  0  0  0  0  0  0  0  0  0
    8.2500   -3.8971    0.0000 C   0  0  0  0  0  0  0  0  0  0  0  0
    7.5000   -2.5981    0.0000 C   0  0  0  0  0  0  0  0  0  0  0  0
    6.0000   -2.5981    0.0000 O   0  0  0  0  0  0  0  0  0  0  0  0
    5.2500   -1.2990    0.0000 C   0  0  0  0  0  0  0  0  0  0  0  0
    3.7500   -1.2990    0.0000 C   0  0  0  0  0  0  0  0  0  0  0  0
    3.0000    0.0000    0.0000 O   0  0  0  0  0  0  0  0  0  0  0  0
   -3.4718    8.2675    0.0000 N   0  0  0  0  0  0  0  0  0  0  0  0
   -2.1015    8.8776    0.0000 C   0  0  0  0  0  0  0  0  0  0  0  0
   -1.0978    7.7629    0.0000 C   0  0  0  0  0  0  0  0  0  0  0  0
   -0.3478    6.4639    0.0000 C   0  0  0  0  0  0  0  0  0  0  0  0
   -1.8478    6.4639    0.0000 C   0  0  0  0  0  0  0  0  0  0  0  0
   -3.3150    6.7757    0.0000 C   0  0  0  0  0  0  0  0  0  0  0  0
   -6.3949   10.8212    0.0000 C   0  0  0  0  0  0  0  0  0  0  0  0
   -7.1449    9.5221    0.0000 C   0  0  0  0  0  0  0  0  0  0  0  0
   -6.1412    8.4074    0.0000 N   0  0  0  0  0  0  0  0  0  0  0  0
   -4.7709    9.0175    0.0000 N   0  0  0  0  0  0  0  0  0  0  0  0
   -4.9277   10.5093    0.0000 C   0  0  0  0  0  0  0  0  0  0  0  0
   -3.8129   11.5130    0.0000 N   0  0  0  0  0  0  0  0  0  0  0  0
   -6.4618   17.3592    0.0000 C   0  0  0  0  0  0  0  0  0  0  0  0
   -5.8517   15.9889    0.0000 C   0  0  0  0  0  0  0  0  0  0  0  0
   -6.7334   14.7753    0.0000 O   0  0  0  0  0  0  0  0  0  0  0  0
   -6.1233   13.4050    0.0000 C   0  0  0  0  0  0  0  0  0  0  0  0
   -7.0050   12.1915    0.0000 C   0  0  0  0  0  0  0  0  0  0  0  0
  1  2  1  0
  2  3  1  0
  2  4  1  0
  4  5  1  0
  6  7  2  0
  7  8  1  0
  8  9  2  0
  9 10  1  0
 10  6  1  0
 11 12  2  0
 12 13  1  0
 13 14  2  0
 14 15  1  0
 15 16  2  0
 16 11  1  0
 17 18  1  0
 18 19  1  0
 18 20  1  0
 21 22  1  0
 22 23  1  0
 23 24  1  0
 24 25  1  0
 25 26  1  0
 26 27  1  0
 28 29  1  0
 30 29  1  1
 30 31  1  0
 31 32  1  0
 32 33  1  0
 33 28  1  0
 32 30  1  0
 34 35  1  0
 35 36  2  0
 36 37  1  0
 37 38  1  0
 38 34  2  0
 40 41  1  0
 41 42  1  0
 42 43  1  0
 43 44  2  0
  5 10  1  0
  8 15  1  0
 14 18  1  0
 11 27  1  0
 32  6  1  6
 28 37  1  0
 38 39  1  0
 34 44  1  0
M  END

