
     RDKit          2D

 35 39  0  0  0  0  0  0  0  0999 V2000
   -9.8417    4.2890    0.0000 C   0  0  0  0  0  0  0  0  0  0  0  0
   -8.4713    3.6789    0.0000 C   0  0  0  0  0  0  0  0  0  0  0  0
   -7.2578    4.5606    0.0000 N   0  0  0  0  0  0  0  0  0  0  0  0
   -7.4146    6.0524    0.0000 C   0  0  0  0  0  0  0  0  0  0  0  0
   -8.7849    6.6625    0.0000 C   0  0  0  0  0  0  0  0  0  0  0  0
   -5.8875    3.9505    0.0000 C   0  0  0  0  0  0  0  0  0  0  0  0
   -4.6740    4.8322    0.0000 C   0  0  0  0  0  0  0  0  0  0  0  0
   -2.0046    4.9721    0.0000 C   0  0  0  0  0  0  0  0  0  0  0  0
   -0.8899    3.9684    0.0000 C   0  0  0  0  0  0  0  0  0  0  0  0
   -1.5000    2.5981    0.0000 C   0  0  0  0  0  0  0  0  0  0  0  0
   -2.9918    2.7549    0.0000 N   0  0  0  0  0  0  0  0  0  0  0  0
   -3.3037    4.2221    0.0000 N   0  0  0  0  0  0  0  0  0  0  0  0
    1.5000    0.0000    0.0000 C   0  0  0  0  0  0  0  0  0  0  0  0
    0.7500   -1.2990    0.0000 C   0  0  0  0  0  0  0  0  0  0  0  0
   -0.7500   -1.2990    0.0000 C   0  0  0  0  0  0  0  0  0  0  0  0
   -1.5000    0.0000    0.0000 C   0  0  0  0  0  0  0  0  0  0  0  0
   -0.7500    1.2990    0.0000 C   0  0  0  0  0  0  0  0  0  0  0  0
    0.7500    1.2990    0.0000 C   0  0  0  0  0  0  0  0  0  0  0  0
   -3.0000    0.0000    0.0000 C   0  0  0  0  0  0  0  0  0  0  0  0
    3.0000    0.0000    0.0000 F   0  0  0  0  0  0  0  0  0  0  0  0
   -3.4718    8.2675    0.0000 N   0  0  0  0  0  0  0  0  0  0  0  0
   -2.1015    8.8776    0.0000 C   0  0  0  0  0  0  0  0  0  0  0  0
   -1.0978    7.7629    0.0000 C   0  0  0  0  0  0  0  0  0  0  0  0
   -0.3478    6.4639    0.0000 C   0  0  0  0  0  0  0  0  0  0  0  0
   -1.8478    6.4639    0.0000 C   0  0  0  0  0  0  0  0  0  0  0  0
   -3.3150    6.7757    0.0000 C   0  0  0  0  0  0  0  0  0  0  0  0
   -6.3949   10.8212    0.0000 C   0  0  0  0  0  0  0  0  0  0  0  0
   -7.1449    9.5221    0.0000 C   0  0  0  0  0  0  0  0  0  0  0  0
   -6.1412    8.4074    0.0000 N   0  0  0  0  0  0  0  0  0  0  0  0
   -4.7709    9.0175    0.0000 N   0  0  0  0  0  0  0  0  0  0  0  0
   -4.9277   10.5093    0.0000 C   0  0  0  0  0  0  0  0  0  0  0  0
   -3.8129   11.5130    0.0000 N   0  0  0  0  0  0  0  0  0  0  0  0
   -6.7334   14.7753    0.0000 C   0  0  0  0  0  0  0  0  0  0  0  0
   -6.1233   13.4050    0.0000 C   0  0  0  0  0  0  0  0  0  0  0  0
   -7.0050   12.1915    0.0000 O   0  0  0  0  0  0  0  0  0  0  0  0
  1  2  1  0
  2  3  1  0
  3  4  1  0
  4  5  1  0
  3  6  1  0
  6  7  1  0
  8  9  2  0
  9 10  1  0
 10 11  2  0
 11 12  1  0
 12  8  1  0
 13 14  2  0
 14 15  1  0
 15 16  2  0
 16 17  1  0
 17 18  2  0
 18 13  1  0
 21 22  1  0
 23 22  1  1
 23 24  1  0
 24 25  1  0
 25 26  1  0
 26 21  1  0
 25 23  1  0
 27 28  1  0
 28 29  2  0
 29 30  1  0
 30 31  1  0
 31 27  2  0
 33 34  1  0
 34 35  1  0
  7 12  1  0
 10 17  1  0
 16 19  1  0
 13 20  1  0
 25  8  1  6
 21 30  1  0
 31 32  1  0
 27 35  1  0
M  END

