
     RDKit          2D

 32 34  0  0  0  0  0  0  0  0999 V2000
    9.0000   -2.5981    0.0000 N   0  0  0  0  0  2  0  0  0  0  0  0
    7.5000   -2.5981    0.0000 N   0  0  0  0  0  4  0  0  0  0  0  0
    6.0000   -2.5981    0.0000 N   0  0  0  0  0  0  0  0  0  0  0  0
    5.2500   -1.2990    0.0000 C   0  0  0  0  0  0  0  0  0  0  0  0
    3.7500   -1.2990    0.0000 C   0  0  0  0  0  0  0  0  0  0  0  0
    3.0000    0.0000    0.0000 C   0  0  0  0  0  0  0  0  0  0  0  0
    1.5000    0.0000    0.0000 C   0  0  0  0  0  0  0  0  0  0  0  0
    0.7500   -1.2990    0.0000 C   0  0  0  0  0  0  0  0  0  0  0  0
   -0.7500   -1.2990    0.0000 C   0  0  0  0  0  0  0  0  0  0  0  0
   -1.5000    0.0000    0.0000 C   0  0  0  0  0  0  0  0  0  0  0  0
   -3.0000    0.0000    0.0000 C   0  0  0  0  0  0  0  0  0  0  0  0
   -3.8817   -1.2135    0.0000 C   0  0  0  0  0  0  0  0  0  0  0  0
   -5.3083   -0.7500    0.0000 C   0  0  0  0  0  0  0  0  0  0  0  0
   -6.5218   -1.6317    0.0000 C   0  0  0  0  0  0  0  0  0  0  0  0
   -7.7353   -2.5134    0.0000 F   0  0  0  0  0  0  0  0  0  0  0  0
   -7.4035   -0.4182    0.0000 F   0  0  0  0  0  0  0  0  0  0  0  0
   -5.6401   -2.8452    0.0000 F   0  0  0  0  0  0  0  0  0  0  0  0
   -5.3083    0.7500    0.0000 N   0  0  0  0  0  0  0  0  0  0  0  0
   -3.8817    1.2135    0.0000 N   0  0  0  0  0  0  0  0  0  0  0  0
   -3.4182    2.6401    0.0000 C   0  0  0  0  0  0  0  0  0  0  0  0
   -1.9509    2.9520    0.0000 C   0  0  0  0  0  0  0  0  0  0  0  0
   -1.4874    4.3786    0.0000 C   0  0  0  0  0  0  0  0  0  0  0  0
   -2.4911    5.4933    0.0000 C   0  0  0  0  0  0  0  0  0  0  0  0
   -2.0276    6.9199    0.0000 N   0  0  0  0  0  0  0  0  0  0  0  0
   -0.5604    7.2317    0.0000 S   0  0  0  0  0  0  0  0  0  0  0  0
    0.9069    7.5436    0.0000 N   0  0  0  0  0  0  0  0  0  0  0  0
   -0.2485    5.7645    0.0000 O   0  0  0  0  0  0  0  0  0  0  0  0
   -0.8722    8.6990    0.0000 O   0  0  0  0  0  0  0  0  0  0  0  0
   -3.9583    5.1814    0.0000 C   0  0  0  0  0  0  0  0  0  0  0  0
   -4.4218    3.7548    0.0000 C   0  0  0  0  0  0  0  0  0  0  0  0
   -0.7500    1.2990    0.0000 C   0  0  0  0  0  0  0  0  0  0  0  0
    0.7500    1.2990    0.0000 C   0  0  0  0  0  0  0  0  0  0  0  0
  1  2  2  0
  2  3  2  0
  3  4  1  0
  4  5  1  0
  5  6  1  0
  6  7  1  0
  7  8  2  0
  8  9  1  0
  9 10  2  0
 10 11  1  0
 11 12  2  0
 12 13  1  0
 13 14  1  0
 14 15  1  0
 14 16  1  0
 14 17  1  0
 13 18  2  0
 18 19  1  0
 19 20  1  0
 20 21  2  0
 21 22  1  0
 22 23  2  0
 23 24  1  0
 24 25  1  0
 25 26  1  0
 25 27  2  0
 25 28  2  0
 23 29  1  0
 29 30  2  0
 10 31  1  0
 31 32  2  0
 32  7  1  0
 19 11  1  0
 30 20  1  0
M  CHG  2   1  -1   2   1
M  END

