
     RDKit          2D

 42 47  0  0  0  0  0  0  0  0999 V2000
  -10.9952   -1.8639    0.0000 N   0  0  0  0  0  0  0  0  0  0  0  0
   -9.5034   -2.0207    0.0000 C   0  0  0  0  0  0  0  0  0  0  0  0
   -7.4261   -3.7029    0.0000 C   0  0  0  0  0  0  0  0  0  0  0  0
   -7.2693   -5.1947    0.0000 N   0  0  0  0  0  0  0  0  0  0  0  0
   -8.6396   -5.8048    0.0000 C   0  0  0  0  0  0  0  0  0  0  0  0
   -9.6433   -4.6901    0.0000 C   0  0  0  0  0  0  0  0  0  0  0  0
   -8.8933   -3.3910    0.0000 N   0  0  0  0  0  0  0  0  0  0  0  0
  -10.1650   -9.3739    0.0000 C   0  0  0  0  0  0  0  0  0  0  0  0
   -8.6978   -9.6858    0.0000 C   0  0  0  0  0  0  0  0  0  0  0  0
   -7.9478   -8.3867    0.0000 N   0  0  0  0  0  0  0  0  0  0  0  0
   -8.9515   -7.2720    0.0000 C   0  0  0  0  0  0  0  0  0  0  0  0
  -10.3218   -7.8821    0.0000 N   0  0  0  0  0  0  0  0  0  0  0  0
   -4.9642   -8.0732    0.0000 F   0  0  0  0  0  0  0  0  0  0  0  0
   -6.4560   -8.2299    0.0000 C   0  0  0  0  0  0  0  0  0  0  0  0
   -6.2992   -9.7217    0.0000 F   0  0  0  0  0  0  0  0  0  0  0  0
   -6.6128   -6.7382    0.0000 F   0  0  0  0  0  0  0  0  0  0  0  0
  -15.2476  -10.4543    0.0000 C   0  0  0  0  0  0  0  0  0  0  0  0
  -13.8210  -10.9178    0.0000 C   0  0  0  0  0  0  0  0  0  0  0  0
  -12.7063   -9.9141    0.0000 C   0  0  0  0  0  0  0  0  0  0  0  0
  -11.2797  -10.3776    0.0000 N   0  0  0  0  0  0  0  0  0  0  0  0
   -4.0819   -0.6918    0.0000 N   0  0  0  0  0  0  0  0  0  0  0  0
   -5.5085   -0.2283    0.0000 C   0  0  0  0  0  0  0  0  0  0  0  0
   -6.6232   -1.2320    0.0000 C   0  0  0  0  0  0  0  0  0  0  0  0
   -6.3114   -2.6992    0.0000 C   0  0  0  0  0  0  0  0  0  0  0  0
   -4.8848   -3.1627    0.0000 C   0  0  0  0  0  0  0  0  0  0  0  0
   -3.7701   -2.1590    0.0000 C   0  0  0  0  0  0  0  0  0  0  0  0
    0.7500   -1.2990    0.0000 C   0  0  0  0  0  0  0  0  0  0  0  0
    1.5000    0.0000    0.0000 N   0  0  0  0  0  0  0  0  0  0  0  0
    0.7500    1.2990    0.0000 C   0  0  0  0  0  0  0  0  0  0  0  0
   -0.7500    1.2990    0.0000 C   0  0  0  0  0  0  0  0  0  0  0  0
   -1.7537    2.4138    0.0000 N   0  0  0  0  0  0  0  0  0  0  0  0
   -3.1240    1.8037    0.0000 C   0  0  0  0  0  0  0  0  0  0  0  0
   -2.9672    0.3119    0.0000 N   0  0  0  0  0  0  0  0  0  0  0  0
   -1.5000    0.0000    0.0000 C   0  0  0  0  0  0  0  0  0  0  0  0
   -0.7500   -1.2990    0.0000 N   0  0  0  0  0  0  0  0  0  0  0  0
   -4.4231    2.5537    0.0000 N   0  0  0  0  0  0  0  0  0  0  0  0
    2.0046   -4.9721    0.0000 C   0  0  0  0  0  0  0  0  0  0  0  0
    3.3037   -4.2221    0.0000 C   0  0  0  0  0  0  0  0  0  0  0  0
    2.9918   -2.7549    0.0000 C   0  0  0  0  0  0  0  0  0  0  0  0
    1.5000   -2.5981    0.0000 C   0  0  0  0  0  0  0  0  0  0  0  0
    0.8899   -3.9684    0.0000 S   0  0  0  0  0  0  0  0  0  0  0  0
    1.8478   -6.4639    0.0000 C   0  0  0  0  0  0  0  0  0  0  0  0
  1  2  1  0
  3  4  2  0
  4  5  1  0
  5  6  2  0
  6  7  1  0
  7  3  1  0
  8  9  2  0
  9 10  1  0
 10 11  1  0
 11 12  2  0
 12  8  1  0
 13 14  1  0
 14 15  1  0
 14 16  1  0
 17 18  1  0
 18 19  1  0
 19 20  1  0
 21 22  1  0
 22 23  1  0
 23 24  1  0
 24 25  1  0
 25 26  1  0
 26 21  1  0
 27 28  2  0
 28 29  1  0
 29 30  2  0
 30 31  1  0
 31 32  2  0
 32 33  1  0
 33 34  1  0
 34 35  2  0
 35 27  1  0
 34 30  1  0
 37 38  2  0
 38 39  1  0
 39 40  2  0
 40 41  1  0
 41 37  1  0
  2  7  1  0
  5 11  1  0
 10 14  1  0
  8 20  1  0
  3 24  1  0
 21 33  1  0
 32 36  1  0
 27 40  1  0
 37 42  1  0
M  END

