
     RDKit          2D

 42 46  0  0  0  0  0  0  0  0999 V2000
   -1.5000    2.5981    0.0000 C   0  0  0  0  0  0  0  0  0  0  0  0
   -2.9918    2.7549    0.0000 C   0  0  0  0  0  0  0  0  0  0  0  0
   -3.3037    4.2221    0.0000 C   0  0  0  0  0  0  0  0  0  0  0  0
   -2.0046    4.9721    0.0000 N   0  0  0  0  0  0  0  0  0  0  0  0
   -0.8899    3.9684    0.0000 C   0  0  0  0  0  0  0  0  0  0  0  0
    1.5000    0.0000    0.0000 C   0  0  0  0  0  0  0  0  0  0  0  0
    0.7500   -1.2990    0.0000 C   0  0  0  0  0  0  0  0  0  0  0  0
   -0.7500   -1.2990    0.0000 C   0  0  0  0  0  0  0  0  0  0  0  0
   -1.5000    0.0000    0.0000 C   0  0  0  0  0  0  0  0  0  0  0  0
   -0.7500    1.2990    0.0000 C   0  0  0  0  0  0  0  0  0  0  0  0
    0.7500    1.2990    0.0000 C   0  0  0  0  0  0  0  0  0  0  0  0
    3.0000    5.1962    0.0000 N   0  0  0  0  0  0  0  0  0  0  0  0
    1.5000    5.1962    0.0000 C   0  0  0  0  0  0  0  0  0  0  0  0
    0.7500    3.8971    0.0000 C   0  0  0  0  0  0  0  0  0  0  0  0
    1.5000    2.5981    0.0000 C   0  0  0  0  0  0  0  0  0  0  0  0
    3.0000    2.5981    0.0000 C   0  0  0  0  0  0  0  0  0  0  0  0
    3.7500    3.8971    0.0000 C   0  0  0  0  0  0  0  0  0  0  0  0
    3.1399    7.8655    0.0000 C   0  0  0  0  0  0  0  0  0  0  0  0
    4.2546    8.8692    0.0000 N   0  0  0  0  0  0  0  0  0  0  0  0
    5.5537    8.1192    0.0000 C   0  0  0  0  0  0  0  0  0  0  0  0
    5.2418    6.6520    0.0000 C   0  0  0  0  0  0  0  0  0  0  0  0
    3.7500    6.4952    0.0000 N   0  0  0  0  0  0  0  0  0  0  0  0
   10.7213    7.5761    0.0000 C   0  0  0  0  0  0  0  0  0  0  0  0
    9.5078    8.4577    0.0000 C   0  0  0  0  0  0  0  0  0  0  0  0
    8.1375    7.8476    0.0000 C   0  0  0  0  0  0  0  0  0  0  0  0
    6.9240    8.7293    0.0000 N   0  0  0  0  0  0  0  0  0  0  0  0
   15.8890    7.0329    0.0000 C   0  0  0  0  0  0  0  0  0  0  0  0
   14.6755    7.9146    0.0000 C   0  0  0  0  0  0  0  0  0  0  0  0
   13.3052    7.3045    0.0000 C   0  0  0  0  0  0  0  0  0  0  0  0
   12.0917    8.1862    0.0000 N   0  0  0  0  0  0  0  0  0  0  0  0
   -0.7982    7.3745    0.0000 C   0  0  0  0  0  0  0  0  0  0  0  0
   -1.2618    8.8011    0.0000 C   0  0  0  0  0  0  0  0  0  0  0  0
   -0.2581    9.9158    0.0000 C   0  0  0  0  0  0  0  0  0  0  0  0
    1.2091    9.6040    0.0000 C   0  0  0  0  0  0  0  0  0  0  0  0
    1.6727    8.1774    0.0000 C   0  0  0  0  0  0  0  0  0  0  0  0
    0.6690    7.0627    0.0000 C   0  0  0  0  0  0  0  0  0  0  0  0
    3.2165   11.8334    0.0000 F   0  0  0  0  0  0  0  0  0  0  0  0
    2.2128   10.7187    0.0000 C   0  0  0  0  0  0  0  0  0  0  0  0
    1.0981   11.7224    0.0000 F   0  0  0  0  0  0  0  0  0  0  0  0
    3.3276    9.7150    0.0000 F   0  0  0  0  0  0  0  0  0  0  0  0
   -1.8019    6.2598    0.0000 F   0  0  0  0  0  0  0  0  0  0  0  0
    3.0000    0.0000    0.0000 N   0  0  0  0  0  0  0  0  0  0  0  0
  1  2  1  0
  2  3  2  0
  3  4  1  0
  4  5  1  0
  5  1  2  0
  6  7  2  0
  7  8  1  0
  8  9  2  0
  9 10  1  0
 10 11  2  0
 11  6  1  0
 12 13  1  0
 13 14  1  0
 14 15  1  0
 15 16  1  0
 16 17  1  0
 17 12  1  0
 18 19  2  0
 19 20  1  0
 20 21  2  0
 21 22  1  0
 22 18  1  0
 23 24  1  0
 24 25  1  0
 25 26  1  0
 27 28  1  0
 28 29  1  0
 29 30  1  0
 31 32  2  0
 32 33  1  0
 33 34  2  0
 34 35  1  0
 35 36  2  0
 36 31  1  0
 37 38  1  0
 38 39  1  0
 38 40  1  0
  1 10  1  0
 11 15  1  0
 12 22  1  0
 20 26  1  0
 23 30  1  0
 18 35  1  0
 34 38  1  0
 31 41  1  0
  6 42  1  0
M  END

