
     RDKit          2D

 35 40  0  0  0  0  0  0  0  0999 V2000
   -1.0607   -2.1213    0.0000 N   0  0  0  0  0  0  0  0  0  0  0  0
   -0.0000   -3.1820    0.0000 C   0  0  0  0  0  0  0  0  0  0  0  0
    1.0607   -2.1213    0.0000 C   0  0  0  0  0  0  0  0  0  0  0  0
   -0.0000   -1.0607    0.0000 C   0  0  0  0  0  0  0  0  0  0  0  0
    1.0607    0.0000    0.0000 C   0  0  0  0  0  0  0  0  0  0  0  0
    0.0000    1.0607    0.0000 O   0  0  0  0  0  0  0  0  0  0  0  0
   -1.0607    0.0000    0.0000 C   0  0  0  0  0  0  0  0  0  0  0  0
   -3.3107   -3.4204    0.0000 N   0  0  0  0  0  0  0  0  0  0  0  0
   -2.5607   -2.1213    0.0000 C   0  0  0  0  0  0  0  0  0  0  0  0
   -5.6923   -4.6339    0.0000 C   0  0  0  0  0  0  0  0  0  0  0  0
   -7.1189   -4.1704    0.0000 N   0  0  0  0  0  0  0  0  0  0  0  0
   -7.1189   -2.6704    0.0000 C   0  0  0  0  0  0  0  0  0  0  0  0
   -5.6923   -2.2068    0.0000 C   0  0  0  0  0  0  0  0  0  0  0  0
   -4.8107   -3.4204    0.0000 N   0  0  0  0  0  0  0  0  0  0  0  0
   -9.7590    0.1748    0.0000 C   0  0  0  0  0  0  0  0  0  0  0  0
  -10.6407   -1.0387    0.0000 C   0  0  0  0  0  0  0  0  0  0  0  0
   -9.7590   -2.2522    0.0000 N   0  0  0  0  0  0  0  0  0  0  0  0
   -8.3324   -1.7887    0.0000 C   0  0  0  0  0  0  0  0  0  0  0  0
   -8.3324   -0.2887    0.0000 N   0  0  0  0  0  0  0  0  0  0  0  0
  -10.2226   -3.6788    0.0000 F   0  0  0  0  0  0  0  0  0  0  0  0
  -10.2226    1.6014    0.0000 F   0  0  0  0  0  0  0  0  0  0  0  0
   -4.3018   -8.9136    0.0000 N   0  0  0  0  0  0  0  0  0  0  0  0
   -3.2981   -7.7989    0.0000 C   0  0  0  0  0  0  0  0  0  0  0  0
   -3.7616   -6.3723    0.0000 C   0  0  0  0  0  0  0  0  0  0  0  0
   -5.2288   -6.0605    0.0000 C   0  0  0  0  0  0  0  0  0  0  0  0
   -6.2325   -7.1752    0.0000 C   0  0  0  0  0  0  0  0  0  0  0  0
   -5.7690   -8.6018    0.0000 C   0  0  0  0  0  0  0  0  0  0  0  0
   -4.7199  -11.5537    0.0000 N   0  0  0  0  0  0  0  0  0  0  0  0
   -3.8382  -12.7673    0.0000 N   0  0  0  0  0  0  0  0  0  0  0  0
   -2.4117  -12.3037    0.0000 C   0  0  0  0  0  0  0  0  0  0  0  0
   -2.4117  -10.8037    0.0000 N   0  0  0  0  0  0  0  0  0  0  0  0
   -3.8382  -10.3402    0.0000 C   0  0  0  0  0  0  0  0  0  0  0  0
   -1.1981  -13.1854    0.0000 N   0  0  0  0  0  0  0  0  0  0  0  0
   -6.9699  -12.8528    0.0000 C   0  0  0  0  0  0  0  0  0  0  0  0
   -6.2199  -11.5537    0.0000 C   0  0  0  0  0  0  0  0  0  0  0  0
  1  2  1  0
  2  3  1  0
  3  4  1  0
  4  5  1  0
  5  6  1  0
  6  7  1  0
  4  1  1  0
  7  4  1  0
  8  9  1  0
 10 11  2  0
 11 12  1  0
 12 13  2  0
 13 14  1  0
 14 10  1  0
 15 16  2  0
 16 17  1  0
 17 18  1  0
 18 19  2  0
 19 15  1  0
 22 23  1  0
 23 24  1  0
 24 25  1  0
 25 26  1  0
 26 27  1  0
 27 22  1  0
 28 29  1  0
 29 30  2  0
 30 31  1  0
 31 32  2  0
 32 28  1  0
 34 35  1  0
  1  9  1  0
  8 14  1  0
 12 18  1  0
 17 20  1  0
 15 21  1  0
 10 25  1  0
 22 32  1  0
 30 33  1  0
 28 35  1  0
M  END

