
     RDKit          2D

 28 31  0  0  0  0  0  0  0  0999 V2000
   -8.3202   -5.6963    0.0000 F   0  0  0  0  0  0  0  0  0  0  0  0
   -8.3202   -1.1963    0.0000 C   0  0  0  0  0  0  0  0  0  0  0  0
   -9.6192   -1.9463    0.0000 C   0  0  0  0  0  0  0  0  0  0  0  0
   -9.6192   -3.4463    0.0000 C   0  0  0  0  0  0  0  0  0  0  0  0
   -8.3202   -4.1963    0.0000 C   0  0  0  0  0  0  0  0  0  0  0  0
   -7.0211   -3.4463    0.0000 N   0  0  0  0  0  0  0  0  0  0  0  0
   -7.0211   -1.9463    0.0000 C   0  0  0  0  0  0  0  0  0  0  0  0
   -9.8202    0.3037    0.0000 O   0  0  0  0  0  0  0  0  0  0  0  0
   -8.3202    0.3037    0.0000 S   0  0  0  0  0  0  0  0  0  0  0  0
   -6.8202    0.3037    0.0000 O   0  0  0  0  0  0  0  0  0  0  0  0
   -8.3202    1.8037    0.0000 C   0  0  0  0  0  0  0  0  0  0  0  0
   -4.4231    2.5537    0.0000 C   0  0  0  0  0  0  0  0  0  0  0  0
   -4.4231    4.0537    0.0000 C   0  0  0  0  0  0  0  0  0  0  0  0
   -5.7221    4.8037    0.0000 N   0  0  0  0  0  0  0  0  0  0  0  0
   -7.0211    4.0537    0.0000 C   0  0  0  0  0  0  0  0  0  0  0  0
   -7.0211    2.5537    0.0000 C   0  0  0  0  0  0  0  0  0  0  0  0
   -5.7221    1.8037    0.0000 C   0  0  0  0  0  0  0  0  0  0  0  0
   -8.3202    4.8037    0.0000 Cl  0  0  0  0  0  0  0  0  0  0  0  0
    1.5000    0.0000    0.0000 C   0  0  0  0  0  0  0  0  0  0  0  0
    0.7500   -1.2990    0.0000 C   0  0  0  0  0  0  0  0  0  0  0  0
   -0.7500   -1.2990    0.0000 C   0  0  0  0  0  0  0  0  0  0  0  0
   -1.5000    0.0000    0.0000 C   0  0  0  0  0  0  0  0  0  0  0  0
   -2.9672    0.3119    0.0000 N   0  0  0  0  0  0  0  0  0  0  0  0
   -3.1240    1.8037    0.0000 C   0  0  0  0  0  0  0  0  0  0  0  0
   -1.7537    2.4138    0.0000 N   0  0  0  0  0  0  0  0  0  0  0  0
   -0.7500    1.2990    0.0000 N   0  0  0  0  0  0  0  0  0  0  0  0
    0.7500    1.2990    0.0000 C   0  0  0  0  0  0  0  0  0  0  0  0
    3.0000    0.0000    0.0000 N   0  0  0  0  0  0  0  0  0  0  0  0
  2  3  2  0
  3  4  1  0
  4  5  2  0
  5  6  1  0
  6  7  2  0
  7  2  1  0
  8  9  2  0
  9 10  2  0
  9 11  1  0
 12 13  2  0
 13 14  1  0
 14 15  2  0
 15 16  1  0
 16 17  2  0
 17 12  1  0
 19 20  1  0
 20 21  2  0
 21 22  1  0
 22 23  2  0
 23 24  1  0
 24 25  2  0
 25 26  1  0
 26 27  1  0
 27 19  2  0
 26 22  1  0
  1  5  1  0
  2  9  1  0
 11 16  1  0
 15 18  1  0
 12 24  1  0
 19 28  1  0
M  ISO  1   1  18
M  END

