
     RDKit          2D

 29 32  0  0  0  0  0  0  0  0999 V2000
   -1.8351    3.2209    0.0000 C   0  0  0  0  0  0  0  0  0  0  0  0
   -0.4086    3.6844    0.0000 C   0  0  0  0  0  0  0  0  0  0  0  0
    0.7062    2.6807    0.0000 C   0  0  0  0  0  0  0  0  0  0  0  0
    0.3943    1.2135    0.0000 C   0  0  0  0  0  0  0  0  0  0  0  0
    1.2760    0.0000    0.0000 N   0  0  0  0  0  0  0  0  0  0  0  0
    0.3943   -1.2135    0.0000 C   0  0  0  0  0  0  0  0  0  0  0  0
   -1.0323   -0.7500    0.0000 N   0  0  0  0  0  0  0  0  0  0  0  0
   -1.0323    0.7500    0.0000 C   0  0  0  0  0  0  0  0  0  0  0  0
   -2.1470    1.7537    0.0000 C   0  0  0  0  0  0  0  0  0  0  0  0
   -5.1671    5.2118    0.0000 C   0  0  0  0  0  0  0  0  0  0  0  0
   -4.1634    6.3265    0.0000 N   0  0  0  0  0  0  0  0  0  0  0  0
   -2.7931    5.7164    0.0000 C   0  0  0  0  0  0  0  0  0  0  0  0
   -2.9499    4.2246    0.0000 C   0  0  0  0  0  0  0  0  0  0  0  0
   -4.4171    3.9127    0.0000 O   0  0  0  0  0  0  0  0  0  0  0  0
   -1.4940    6.4664    0.0000 Br  0  0  0  0  0  0  0  0  0  0  0  0
   -9.0323    4.3118    0.0000 C   0  0  0  0  0  0  0  0  0  0  0  0
   -7.5405    4.1551    0.0000 O   0  0  0  0  0  0  0  0  0  0  0  0
   -6.6589    5.3686    0.0000 C   0  0  0  0  0  0  0  0  0  0  0  0
   -7.2690    6.7389    0.0000 C   0  0  0  0  0  0  0  0  0  0  0  0
   -9.3709    8.2660    0.0000 C   0  0  0  0  0  0  0  0  0  0  0  0
  -10.8626    8.4228    0.0000 C   0  0  0  0  0  0  0  0  0  0  0  0
  -11.7443    7.2093    0.0000 C   0  0  0  0  0  0  0  0  0  0  0  0
  -11.1342    5.8390    0.0000 C   0  0  0  0  0  0  0  0  0  0  0  0
   -9.6424    5.6822    0.0000 C   0  0  0  0  0  0  0  0  0  0  0  0
   -8.7607    6.8957    0.0000 C   0  0  0  0  0  0  0  0  0  0  0  0
   -7.6075   10.6931    0.0000 F   0  0  0  0  0  0  0  0  0  0  0  0
   -8.4892    9.4795    0.0000 C   0  0  0  0  0  0  0  0  0  0  0  0
   -9.7027   10.3612    0.0000 F   0  0  0  0  0  0  0  0  0  0  0  0
   -7.2756    8.5979    0.0000 F   0  0  0  0  0  0  0  0  0  0  0  0
  1  2  2  0
  2  3  1  0
  3  4  2  0
  4  5  1  0
  5  6  2  0
  6  7  1  0
  7  8  1  0
  8  9  2  0
  9  1  1  0
  8  4  1  0
 10 11  2  0
 11 12  1  0
 12 13  2  0
 13 14  1  0
 14 10  1  0
 16 17  1  0
 17 18  1  0
 18 19  1  0
 20 21  2  0
 21 22  1  0
 22 23  2  0
 23 24  1  0
 24 25  2  0
 25 20  1  0
 26 27  1  0
 27 28  1  0
 27 29  1  0
  1 13  1  0
 12 15  1  0
 10 18  1  0
 19 25  1  0
 20 27  1  0
M  END

