
     RDKit          2D

 41 44  0  0  0  0  0  0  0  0999 V2000
   -9.8417    4.2890    0.0000 C   0  0  0  0  0  0  0  0  0  0  0  0
   -8.4713    3.6789    0.0000 C   0  0  0  0  0  0  0  0  0  0  0  0
   -7.2578    4.5606    0.0000 N   0  0  0  0  0  0  0  0  0  0  0  0
   -7.4146    6.0524    0.0000 C   0  0  0  0  0  0  0  0  0  0  0  0
   -8.7849    6.6625    0.0000 C   0  0  0  0  0  0  0  0  0  0  0  0
   -4.6740    4.8322    0.0000 C   0  0  0  0  0  0  0  0  0  0  0  0
   -5.8875    3.9505    0.0000 C   0  0  0  0  0  0  0  0  0  0  0  0
   -2.0046    4.9721    0.0000 C   0  0  0  0  0  0  0  0  0  0  0  0
   -0.8899    3.9684    0.0000 N   0  0  0  0  0  0  0  0  0  0  0  0
   -1.5000    2.5981    0.0000 C   0  0  0  0  0  0  0  0  0  0  0  0
   -2.9918    2.7549    0.0000 C   0  0  0  0  0  0  0  0  0  0  0  0
   -3.3037    4.2221    0.0000 N   0  0  0  0  0  0  0  0  0  0  0  0
    1.5000    0.0000    0.0000 C   0  0  0  0  0  0  0  0  0  0  0  0
    0.7500   -1.2990    0.0000 C   0  0  0  0  0  0  0  0  0  0  0  0
   -0.7500   -1.2990    0.0000 C   0  0  0  0  0  0  0  0  0  0  0  0
   -1.5000    0.0000    0.0000 C   0  0  0  0  0  0  0  0  0  0  0  0
   -0.7500    1.2990    0.0000 C   0  0  0  0  0  0  0  0  0  0  0  0
    0.7500    1.2990    0.0000 C   0  0  0  0  0  0  0  0  0  0  0  0
   -3.7500   -3.8971    0.0000 F   0  0  0  0  0  0  0  0  0  0  0  0
   -4.5000   -2.5981    0.0000 C   0  0  0  0  0  0  0  0  0  0  0  0
   -6.0000   -2.5981    0.0000 F   0  0  0  0  0  0  0  0  0  0  0  0
   -3.7500   -1.2990    0.0000 C   0  0  0  0  0  0  0  0  0  0  0  0
   -2.4510   -2.0490    0.0000 F   0  0  0  0  0  0  0  0  0  0  0  0
   -5.0490   -0.5490    0.0000 F   0  0  0  0  0  0  0  0  0  0  0  0
   -3.0000    0.0000    0.0000 O   0  0  0  0  0  0  0  0  0  0  0  0
    3.0000    0.0000    0.0000 F   0  0  0  0  0  0  0  0  0  0  0  0
   -0.3207    8.5658    0.0000 N   0  0  0  0  0  0  0  0  0  0  0  0
   -1.5342    9.4474    0.0000 C   0  0  0  0  0  0  0  0  0  0  0  0
   -2.9046    8.8373    0.0000 C   0  0  0  0  0  0  0  0  0  0  0  0
   -3.0613    7.3456    0.0000 C   0  0  0  0  0  0  0  0  0  0  0  0
   -1.8478    6.4639    0.0000 C   0  0  0  0  0  0  0  0  0  0  0  0
   -0.4775    7.0740    0.0000 C   0  0  0  0  0  0  0  0  0  0  0  0
    1.2064   10.6676    0.0000 C   0  0  0  0  0  0  0  0  0  0  0  0
    2.5767   11.2778    0.0000 C   0  0  0  0  0  0  0  0  0  0  0  0
    3.7902   10.3961    0.0000 N   0  0  0  0  0  0  0  0  0  0  0  0
    3.6335    8.9043    0.0000 C   0  0  0  0  0  0  0  0  0  0  0  0
    2.2631    8.2942    0.0000 N   0  0  0  0  0  0  0  0  0  0  0  0
    1.0496    9.1759    0.0000 C   0  0  0  0  0  0  0  0  0  0  0  0
    2.7335   12.7695    0.0000 N   0  0  0  0  0  0  0  0  0  0  0  0
    0.1497   13.0411    0.0000 C   0  0  0  0  0  0  0  0  0  0  0  0
   -0.0071   11.5493    0.0000 C   0  0  0  0  0  0  0  0  0  0  0  0
  1  2  1  0
  2  3  1  0
  3  4  1  0
  4  5  1  0
  6  7  1  0
  8  9  2  0
  9 10  1  0
 10 11  2  0
 11 12  1  0
 12  8  1  0
 13 14  2  0
 14 15  1  0
 15 16  2  0
 16 17  1  0
 17 18  2  0
 18 13  1  0
 19 20  1  0
 20 21  1  0
 20 22  1  0
 22 23  1  0
 22 24  1  0
 22 25  1  0
 27 28  1  0
 28 29  1  0
 29 30  1  0
 30 31  1  0
 31 32  1  0
 32 27  1  0
 33 34  2  0
 34 35  1  0
 35 36  2  0
 36 37  1  0
 37 38  2  0
 38 33  1  0
 40 41  2  0
  3  7  1  0
  6 12  1  0
 10 17  1  0
 16 25  1  0
 13 26  1  0
  8 31  1  0
 27 38  1  0
 34 39  1  0
 33 41  1  0
M  ISO  1  26  18
M  END

