
     RDKit          2D

 37 41  0  0  0  0  0  0  0  0999 V2000
   -8.4785   -7.8704    0.0000 C   0  0  0  0  0  0  0  0  0  0  0  0
   -8.6353   -6.3786    0.0000 C   0  0  0  0  0  0  0  0  0  0  0  0
   -7.4217   -5.4969    0.0000 C   0  0  0  0  0  0  0  0  0  0  0  0
   -7.5785   -4.0051    0.0000 N   0  0  0  0  0  0  0  0  0  0  0  0
   -6.5218   -1.6317    0.0000 C   0  0  0  0  0  0  0  0  0  0  0  0
   -6.3650   -3.1235    0.0000 C   0  0  0  0  0  0  0  0  0  0  0  0
   -5.3083    0.7500    0.0000 C   0  0  0  0  0  0  0  0  0  0  0  0
   -3.8817    1.2135    0.0000 N   0  0  0  0  0  0  0  0  0  0  0  0
   -3.0000    0.0000    0.0000 C   0  0  0  0  0  0  0  0  0  0  0  0
   -3.8817   -1.2135    0.0000 C   0  0  0  0  0  0  0  0  0  0  0  0
   -5.3083   -0.7500    0.0000 N   0  0  0  0  0  0  0  0  0  0  0  0
    1.5000    0.0000    0.0000 C   0  0  0  0  0  0  0  0  0  0  0  0
    0.7500   -1.2990    0.0000 C   0  0  0  0  0  0  0  0  0  0  0  0
   -0.7500   -1.2990    0.0000 C   0  0  0  0  0  0  0  0  0  0  0  0
   -1.5000    0.0000    0.0000 C   0  0  0  0  0  0  0  0  0  0  0  0
   -0.7500    1.2990    0.0000 C   0  0  0  0  0  0  0  0  0  0  0  0
    0.7500    1.2990    0.0000 C   0  0  0  0  0  0  0  0  0  0  0  0
    6.0000   -2.5981    0.0000 C   0  0  0  0  0  0  0  0  0  0  0  0
    5.2500   -1.2990    0.0000 N   0  0  0  0  0  0  0  0  0  0  0  0
    3.7500   -1.2990    0.0000 C   0  0  0  0  0  0  0  0  0  0  0  0
    3.0000    0.0000    0.0000 C   0  0  0  0  0  0  0  0  0  0  0  0
    3.7500    1.2990    0.0000 O   0  0  0  0  0  0  0  0  0  0  0  0
   -8.8958    1.1271    0.0000 N   0  0  0  0  0  0  0  0  0  0  0  0
   -8.7390    2.6188    0.0000 C   0  0  0  0  0  0  0  0  0  0  0  0
   -7.2718    2.9307    0.0000 C   0  0  0  0  0  0  0  0  0  0  0  0
   -5.7718    2.9307    0.0000 C   0  0  0  0  0  0  0  0  0  0  0  0
   -6.5218    1.6317    0.0000 C   0  0  0  0  0  0  0  0  0  0  0  0
   -7.5255    0.5170    0.0000 C   0  0  0  0  0  0  0  0  0  0  0  0
  -12.5689   -0.1275    0.0000 C   0  0  0  0  0  0  0  0  0  0  0  0
  -11.8189   -1.4266    0.0000 C   0  0  0  0  0  0  0  0  0  0  0  0
  -10.3516   -1.1147    0.0000 N   0  0  0  0  0  0  0  0  0  0  0  0
  -10.1948    0.3771    0.0000 N   0  0  0  0  0  0  0  0  0  0  0  0
  -11.5652    0.9872    0.0000 C   0  0  0  0  0  0  0  0  0  0  0  0
  -12.1889    3.9216    0.0000 C   0  0  0  0  0  0  0  0  0  0  0  0
  -11.8770    2.4544    0.0000 C   0  0  0  0  0  0  0  0  0  0  0  0
  -15.5524    0.1860    0.0000 N   0  0  0  0  0  0  0  0  0  0  0  0
  -14.0606    0.0292    0.0000 C   0  0  0  0  0  0  0  0  0  0  0  0
  1  2  1  0
  2  3  1  0
  3  4  1  0
  5  6  1  0
  7  8  2  0
  8  9  1  0
  9 10  2  0
 10 11  1  0
 11  7  1  0
 12 13  2  0
 13 14  1  0
 14 15  2  0
 15 16  1  0
 16 17  2  0
 17 12  1  0
 18 19  1  0
 19 20  1  0
 20 21  1  0
 21 22  1  1
 23 24  1  0
 25 24  1  1
 25 26  1  0
 26 27  1  0
 27 28  1  0
 28 23  1  0
 27 25  1  0
 29 30  1  0
 30 31  2  0
 31 32  1  0
 32 33  1  0
 33 29  2  0
 34 35  3  0
 36 37  3  0
  4  6  1  0
  5 11  1  0
  9 15  1  0
 12 21  1  0
 27  7  1  6
 23 32  1  0
 33 35  1  0
 29 37  1  0
M  END

