
     RDKit          2D

 32 37  0  0  0  0  0  0  0  0999 V2000
   -0.0000   -5.1073    0.0000 C   0  0  0  0  0  0  0  0  0  0  0  0
   -1.2990   -5.8573    0.0000 O   0  0  0  0  0  0  0  0  0  0  0  0
    1.2135   -2.7256    0.0000 N   0  0  0  0  0  0  0  0  0  0  0  0
    0.7500   -1.2990    0.0000 C   0  0  0  0  0  0  0  0  0  0  0  0
    1.5000   -0.0000    0.0000 C   0  0  0  0  0  0  0  0  0  0  0  0
    0.7500    1.2990    0.0000 C   0  0  0  0  0  0  0  0  0  0  0  0
   -0.7500    1.2990    0.0000 C   0  0  0  0  0  0  0  0  0  0  0  0
   -1.5000    0.0000    0.0000 C   0  0  0  0  0  0  0  0  0  0  0  0
   -0.7500   -1.2990    0.0000 C   0  0  0  0  0  0  0  0  0  0  0  0
   -1.2135   -2.7256    0.0000 C   0  0  0  0  0  0  0  0  0  0  0  0
   -0.0000   -3.6073    0.0000 C   0  0  0  0  0  0  0  0  0  0  0  0
    3.1447   -5.5632    0.0000 C   0  0  0  0  0  0  0  0  0  0  0  0
    4.4438   -4.8132    0.0000 C   0  0  0  0  0  0  0  0  0  0  0  0
    4.1319   -3.3459    0.0000 O   0  0  0  0  0  0  0  0  0  0  0  0
    2.6401   -3.1891    0.0000 C   0  0  0  0  0  0  0  0  0  0  0  0
    2.0300   -4.5595    0.0000 O   0  0  0  0  0  0  0  0  0  0  0  0
    3.2385    3.2331    0.0000 C   0  0  0  0  0  0  0  0  0  0  0  0
    4.7057    2.9213    0.0000 N   0  0  0  0  0  0  0  0  0  0  0  0
    5.1692    1.4947    0.0000 C   0  0  0  0  0  0  0  0  0  0  0  0
    4.1655    0.3800    0.0000 C   0  0  0  0  0  0  0  0  0  0  0  0
    4.3223   -1.1118    0.0000 N   0  0  0  0  0  0  0  0  0  0  0  0
    2.9520   -1.7219    0.0000 C   0  0  0  0  0  0  0  0  0  0  0  0
    1.9483   -0.6072    0.0000 N   0  0  0  0  0  0  0  0  0  0  0  0
    2.6983    0.6918    0.0000 C   0  0  0  0  0  0  0  0  0  0  0  0
    2.2348    2.1184    0.0000 N   0  0  0  0  0  0  0  0  0  0  0  0
    6.6364    1.1828    0.0000 F   0  0  0  0  0  0  0  0  0  0  0  0
    2.7749    4.6597    0.0000 N   0  0  0  0  0  0  0  0  0  0  0  0
    3.7786    5.7744    0.0000 C   0  0  0  0  0  0  0  0  0  0  0  0
    3.3151    7.2010    0.0000 C   0  0  0  0  0  0  0  0  0  0  0  0
    1.8479    7.5129    0.0000 O   0  0  0  0  0  0  0  0  0  0  0  0
    0.8442    6.3982    0.0000 C   0  0  0  0  0  0  0  0  0  0  0  0
    1.3077    4.9716    0.0000 C   0  0  0  0  0  0  0  0  0  0  0  0
  1  2  1  0
  3  4  1  0
  4  5  2  0
  5  6  1  0
  6  7  2  0
  7  8  1  0
  8  9  2  0
  9 10  1  0
 10 11  1  0
 11  3  1  0
  9  4  1  0
 12 13  1  6
 13 14  1  0
 14 15  1  0
 15 16  1  0
 16 12  1  0
 17 18  2  0
 18 19  1  0
 19 20  2  0
 20 21  1  0
 21 22  2  0
 22 23  1  0
 23 24  1  0
 24 25  2  0
 25 17  1  0
 24 20  1  0
 27 28  1  0
 28 29  1  0
 29 30  1  0
 30 31  1  0
 31 32  1  0
 32 27  1  0
 11  1  1  1
  3 15  1  0
 15 22  1  1
 19 26  1  0
 17 27  1  0
M  END

