
     RDKit          2D

 30 33  0  0  0  0  0  0  0  0999 V2000
   -4.8297   -1.9033    0.0000 C   0  0  0  0  0  0  0  0  0  0  0  0
   -3.6161   -1.0216    0.0000 C   0  0  0  0  0  0  0  0  0  0  0  0
   -3.7729    0.4702    0.0000 C   0  0  0  0  0  0  0  0  0  0  0  0
   -2.2458   -1.6317    0.0000 C   0  0  0  0  0  0  0  0  0  0  0  0
    0.3943    1.2135    0.0000 C   0  0  0  0  0  0  0  0  0  0  0  0
    1.2760    0.0000    0.0000 C   0  0  0  0  0  0  0  0  0  0  0  0
    0.3943   -1.2135    0.0000 S   0  0  0  0  0  0  0  0  0  0  0  0
   -1.0323   -0.7500    0.0000 C   0  0  0  0  0  0  0  0  0  0  0  0
   -1.0323    0.7500    0.0000 N   0  0  0  0  0  0  0  0  0  0  0  0
    2.2844    3.1036    0.0000 C   0  0  0  0  0  0  0  0  0  0  0  0
    2.2844    4.6036    0.0000 N   0  0  0  0  0  0  0  0  0  0  0  0
    0.8578    5.0672    0.0000 C   0  0  0  0  0  0  0  0  0  0  0  0
   -0.0239    3.8536    0.0000 S   0  0  0  0  0  0  0  0  0  0  0  0
    0.8578    2.6401    0.0000 C   0  0  0  0  0  0  0  0  0  0  0  0
   -2.2458    9.3389    0.0000 O   0  0  0  0  0  0  0  0  0  0  0  0
   -1.0323    8.4573    0.0000 C   0  0  0  0  0  0  0  0  0  0  0  0
   -1.0323    6.9573    0.0000 C   0  0  0  0  0  0  0  0  0  0  0  0
    0.3943    6.4937    0.0000 C   0  0  0  0  0  0  0  0  0  0  0  0
    1.2760    7.7073    0.0000 C   0  0  0  0  0  0  0  0  0  0  0  0
    2.7760    7.7073    0.0000 O   0  0  0  0  0  0  0  0  0  0  0  0
    0.3943    8.9208    0.0000 N   0  0  0  0  0  0  0  0  0  0  0  0
    2.2844   10.8109    0.0000 N   0  0  0  0  0  0  0  0  0  0  0  0
    2.2844   12.3109    0.0000 C   0  0  0  0  0  0  0  0  0  0  0  0
    0.8578   12.7744    0.0000 C   0  0  0  0  0  0  0  0  0  0  0  0
   -0.0239   11.5609    0.0000 C   0  0  0  0  0  0  0  0  0  0  0  0
    0.8578   10.3474    0.0000 C   0  0  0  0  0  0  0  0  0  0  0  0
    4.8683   10.5393    0.0000 C   0  0  0  0  0  0  0  0  0  0  0  0
    3.4979    9.9292    0.0000 C   0  0  0  0  0  0  0  0  0  0  0  0
    3.3411    8.4374    0.0000 O   0  0  0  0  0  0  0  0  0  0  0  0
    3.4979    2.2220    0.0000 C   0  0  0  0  0  0  0  0  0  0  0  0
  1  2  1  0
  2  3  1  0
  5  6  2  0
  6  7  1  0
  7  8  1  0
  8  9  2  0
  9  5  1  0
 10 11  1  0
 11 12  2  0
 12 13  1  0
 13 14  1  0
 14 10  2  0
 15 16  2  0
 16 17  1  0
 17 18  2  0
 18 19  1  0
 19 20  2  0
 19 21  1  0
 21 16  1  0
 22 23  1  0
 23 24  1  0
 24 25  1  0
 25 26  1  0
 26 22  1  0
 27 28  1  0
 28 29  2  0
  2  4  1  0
  4  8  1  0
  5 14  1  0
 12 18  1  0
 26 21  1  1
 22 28  1  0
 10 30  1  0
M  END

