
     RDKit          2D

 34 39  0  0  0  0  0  0  0  0999 V2000
    4.5000    0.0000    0.0000 C   0  0  0  0  0  0  0  0  0  0  0  0
    3.0000    0.0000    0.0000 C   0  0  0  0  0  0  0  0  0  0  0  0
    1.5000    0.0000    0.0000 C   0  0  0  0  0  0  0  0  0  0  0  0
    0.7500   -1.2990    0.0000 C   0  0  0  0  0  0  0  0  0  0  0  0
    1.5000   -2.5981    0.0000 C   0  0  0  0  0  0  0  0  0  0  0  0
    0.7500   -3.8971    0.0000 C   0  0  0  0  0  0  0  0  0  0  0  0
   -0.7500   -1.2990    0.0000 C   0  0  0  0  0  0  0  0  0  0  0  0
   -1.5000   -2.5981    0.0000 N   0  0  0  0  0  0  0  0  0  0  0  0
   -0.8899   -3.9684    0.0000 C   0  0  0  0  0  0  0  0  0  0  0  0
   -2.0046   -4.9721    0.0000 C   0  0  0  0  0  0  0  0  0  0  0  0
   -3.3037   -5.7221    0.0000 C   0  0  0  0  0  0  0  0  0  0  0  0
   -3.3037   -4.2221    0.0000 C   0  0  0  0  0  0  0  0  0  0  0  0
   -4.7954   -4.0653    0.0000 C   0  0  0  0  0  0  0  0  0  0  0  0
   -5.7991   -5.1800    0.0000 N   0  0  0  0  0  0  0  0  0  0  0  0
   -7.1694   -4.5699    0.0000 C   0  0  0  0  0  0  0  0  0  0  0  0
   -8.4685   -5.3199    0.0000 C   0  0  0  0  0  0  0  0  0  0  0  0
   -9.7675   -4.5699    0.0000 C   0  0  0  0  0  0  0  0  0  0  0  0
  -11.0666   -5.3199    0.0000 C   0  0  0  0  0  0  0  0  0  0  0  0
  -12.3656   -4.5699    0.0000 Cl  0  0  0  0  0  0  0  0  0  0  0  0
  -11.0666   -6.8199    0.0000 C   0  0  0  0  0  0  0  0  0  0  0  0
   -9.7675   -7.5699    0.0000 C   0  0  0  0  0  0  0  0  0  0  0  0
   -8.4685   -6.8199    0.0000 C   0  0  0  0  0  0  0  0  0  0  0  0
   -7.0127   -3.0781    0.0000 C   0  0  0  0  0  0  0  0  0  0  0  0
   -5.5454   -2.7663    0.0000 N   0  0  0  0  0  0  0  0  0  0  0  0
   -4.9353   -1.3959    0.0000 N   0  0  0  0  0  0  0  0  0  0  0  0
   -5.8170   -0.1824    0.0000 C   0  0  0  0  0  0  0  0  0  0  0  0
   -5.2069    1.1879    0.0000 N   0  0  0  0  0  0  0  0  0  0  0  0
   -3.8065    1.7255    0.0000 C   0  0  0  0  0  0  0  0  0  0  0  0
   -4.3441    3.1258    0.0000 C   0  0  0  0  0  0  0  0  0  0  0  0
   -5.7445    2.5883    0.0000 C   0  0  0  0  0  0  0  0  0  0  0  0
   -2.9918   -2.7549    0.0000 C   0  0  0  0  0  0  0  0  0  0  0  0
   -1.5000    0.0000    0.0000 N   0  0  0  0  0  0  0  0  0  0  0  0
   -0.7500    1.2990    0.0000 C   0  0  0  0  0  0  0  0  0  0  0  0
    0.7500    1.2990    0.0000 N   0  0  0  0  0  0  0  0  0  0  0  0
  1  2  3  0
  2  3  1  0
  3  4  2  0
  4  5  1  0
  5  6  1  0
  4  7  1  0
  7  8  1  0
  8  9  1  0
 10  9  1  1
 10 11  1  0
 11 12  1  0
 12 13  1  6
 13 14  2  0
 14 15  1  0
 15 16  1  0
 16 17  2  0
 17 18  1  0
 18 19  1  0
 18 20  2  0
 20 21  1  0
 21 22  2  0
 15 23  2  0
 23 24  1  0
 24 25  1  0
 25 26  1  0
 26 27  1  0
 27 28  1  0
 28 29  1  0
 29 30  1  0
 12 31  1  0
  7 32  2  0
 32 33  1  0
 33 34  2  0
 34  3  1  0
 31  8  1  0
 12 10  1  0
 24 13  1  0
 30 27  1  0
 22 16  1  0
M  END

