
     RDKit          2D

 38 43  0  0  0  0  0  0  0  0999 V2000
   -9.2711  -15.0488    0.0000 C   0  0  0  0  0  0  0  0  0  0  0  0
   -9.2711  -13.5488    0.0000 C   0  0  0  0  0  0  0  0  0  0  0  0
  -10.5702  -12.7988    0.0000 N   0  0  0  0  0  0  0  0  0  0  0  0
  -11.8692  -13.5488    0.0000 C   0  0  0  0  0  0  0  0  0  0  0  0
   -9.2711   -9.0488    0.0000 N   0  0  0  0  0  0  0  0  0  0  0  0
  -10.5702   -8.2988    0.0000 C   0  0  0  0  0  0  0  0  0  0  0  0
  -11.8692   -9.0488    0.0000 C   0  0  0  0  0  0  0  0  0  0  0  0
  -11.8692  -10.5488    0.0000 C   0  0  0  0  0  0  0  0  0  0  0  0
  -10.5702  -11.2988    0.0000 C   0  0  0  0  0  0  0  0  0  0  0  0
   -9.2711  -10.5488    0.0000 C   0  0  0  0  0  0  0  0  0  0  0  0
   -6.6731   -9.0488    0.0000 C   0  0  0  0  0  0  0  0  0  0  0  0
   -7.9721   -8.2988    0.0000 S   0  0  0  0  0  0  0  0  0  0  0  0
   -1.5000   -5.1962    0.0000 C   0  0  0  0  0  0  0  0  0  0  0  0
   -0.7500   -6.4952    0.0000 N   0  0  0  0  0  0  0  0  0  0  0  0
   -1.5000   -7.7942    0.0000 C   0  0  0  0  0  0  0  0  0  0  0  0
   -3.0000   -7.7942    0.0000 C   0  0  0  0  0  0  0  0  0  0  0  0
   -4.0037   -8.9089    0.0000 S   0  0  0  0  0  0  0  0  0  0  0  0
   -5.3740   -8.2988    0.0000 C   0  0  0  0  0  0  0  0  0  0  0  0
   -5.2172   -6.8071    0.0000 C   0  0  0  0  0  0  0  0  0  0  0  0
   -3.7500   -6.4952    0.0000 C   0  0  0  0  0  0  0  0  0  0  0  0
   -3.0000   -5.1962    0.0000 N   0  0  0  0  0  0  0  0  0  0  0  0
   -0.7500   -9.0933    0.0000 N   0  0  0  0  0  0  0  0  0  0  0  0
   -1.5000  -10.3923    0.0000 C   0  0  0  0  0  0  0  0  0  0  0  0
   -0.7500  -11.6913    0.0000 C   0  0  0  0  0  0  0  0  0  0  0  0
    0.7500  -11.6913    0.0000 O   0  0  0  0  0  0  0  0  0  0  0  0
    1.5000  -10.3923    0.0000 C   0  0  0  0  0  0  0  0  0  0  0  0
    0.7500   -9.0933    0.0000 C   0  0  0  0  0  0  0  0  0  0  0  0
    0.7500   -3.8971    0.0000 C   0  0  0  0  0  0  0  0  0  0  0  0
    1.5000   -2.5981    0.0000 N   0  0  0  0  0  0  0  0  0  0  0  0
    0.7500   -1.2990    0.0000 C   0  0  0  0  0  0  0  0  0  0  0  0
    1.5000    0.0000    0.0000 C   0  0  0  0  0  0  0  0  0  0  0  0
    0.7500    1.2990    0.0000 C   0  0  0  0  0  0  0  0  0  0  0  0
   -0.7500    1.2990    0.0000 C   0  0  0  0  0  0  0  0  0  0  0  0
   -1.5000    0.0000    0.0000 C   0  0  0  0  0  0  0  0  0  0  0  0
   -0.7500   -1.2990    0.0000 C   0  0  0  0  0  0  0  0  0  0  0  0
   -1.5000   -2.5981    0.0000 C   0  0  0  0  0  0  0  0  0  0  0  0
   -0.7500   -3.8971    0.0000 C   0  0  0  0  0  0  0  0  0  0  0  0
    1.5000   -5.1962    0.0000 C   0  0  0  0  0  0  0  0  0  0  0  0
  1  2  1  0
  2  3  1  0
  3  4  1  0
  5  6  1  0
  6  7  1  0
  7  8  1  0
  8  9  1  0
  9 10  1  0
 10  5  1  0
 11 12  1  0
 13 14  2  0
 14 15  1  0
 15 16  2  0
 16 17  1  0
 17 18  1  0
 18 19  2  0
 19 20  1  0
 20 21  2  0
 21 13  1  0
 20 16  1  0
 22 23  1  0
 23 24  1  0
 24 25  1  0
 25 26  1  0
 26 27  1  0
 27 22  1  0
 28 29  2  0
 29 30  1  0
 30 31  2  0
 31 32  1  0
 32 33  2  0
 33 34  1  0
 34 35  2  0
 35 36  1  0
 36 37  2  0
 37 28  1  0
 35 30  1  0
  3  9  1  0
  5 12  1  0
 11 18  1  0
 15 22  1  0
 13 37  1  0
 28 38  1  0
M  END

