
     RDKit          2D

 33 36  0  0  0  0  0  0  0  0999 V2000
    8.5441    0.6723    0.0000 C   0  0  0  0  0  0  0  0  0  0  0  0
    8.2322   -0.7949    0.0000 C   0  0  0  0  0  0  0  0  0  0  0  0
    9.3469   -1.7986    0.0000 C   0  0  0  0  0  0  0  0  0  0  0  0
    9.0350   -3.2658    0.0000 C   0  0  0  0  0  0  0  0  0  0  0  0
   10.1498   -4.2695    0.0000 N   0  0  0  0  0  0  0  0  0  0  0  0
    9.8379   -5.7367    0.0000 C   0  0  0  0  0  0  0  0  0  0  0  0
    8.4113   -6.2002    0.0000 O   0  0  0  0  0  0  0  0  0  0  0  0
   10.9526   -6.7404    0.0000 O   0  0  0  0  0  0  0  0  0  0  0  0
   10.6407   -8.2076    0.0000 C   0  0  0  0  0  0  0  0  0  0  0  0
   12.1080   -8.5195    0.0000 C   0  0  0  0  0  0  0  0  0  0  0  0
    9.1735   -7.8958    0.0000 C   0  0  0  0  0  0  0  0  0  0  0  0
   10.3289   -9.6748    0.0000 C   0  0  0  0  0  0  0  0  0  0  0  0
    7.6085   -3.7293    0.0000 C   0  0  0  0  0  0  0  0  0  0  0  0
    6.4937   -2.7256    0.0000 N   0  0  0  0  0  0  0  0  0  0  0  0
    5.0672   -3.1891    0.0000 C   0  0  0  0  0  0  0  0  0  0  0  0
    4.6036   -4.6157    0.0000 N   0  0  0  0  0  0  0  0  0  0  0  0
    3.1036   -4.6157    0.0000 N   0  0  0  0  0  0  0  0  0  0  0  0
    2.2220   -5.8293    0.0000 N   0  0  0  0  0  0  0  0  0  0  0  0
    2.6401   -3.1891    0.0000 C   0  0  0  0  0  0  0  0  0  0  0  0
    1.2135   -2.7256    0.0000 C   0  0  0  0  0  0  0  0  0  0  0  0
    0.7500   -1.2990    0.0000 C   0  0  0  0  0  0  0  0  0  0  0  0
    1.5000    0.0000    0.0000 C   0  0  0  0  0  0  0  0  0  0  0  0
    0.7500    1.2990    0.0000 C   0  0  0  0  0  0  0  0  0  0  0  0
   -0.7500    1.2990    0.0000 C   0  0  0  0  0  0  0  0  0  0  0  0
   -1.5000    2.5981    0.0000 C   0  0  0  0  0  0  0  0  0  0  0  0
   -0.7500    3.8971    0.0000 C   0  0  0  0  0  0  0  0  0  0  0  0
   -0.0000    5.1962    0.0000 N   0  0  0  0  0  0  0  0  0  0  0  0
   -1.5000    0.0000    0.0000 C   0  0  0  0  0  0  0  0  0  0  0  0
   -0.7500   -1.2990    0.0000 C   0  0  0  0  0  0  0  0  0  0  0  0
   -1.2135   -2.7256    0.0000 N   0  0  0  0  0  0  0  0  0  0  0  0
    0.0000   -3.6073    0.0000 N   0  0  0  0  0  0  0  0  0  0  0  0
    3.8536   -2.3075    0.0000 N   0  0  0  0  0  0  0  0  0  0  0  0
    6.8056   -1.2584    0.0000 C   0  0  0  0  0  0  0  0  0  0  0  0
  2  1  1  6
  2  3  1  0
  3  4  1  0
  4  5  1  6
  5  6  1  0
  6  7  2  0
  6  8  1  0
  8  9  1  0
  9 10  1  0
  9 11  1  0
  9 12  1  0
  4 13  1  0
 13 14  1  0
 14 15  1  0
 15 16  2  0
 16 17  1  0
 17 18  1  0
 17 19  1  0
 19 20  1  0
 20 21  2  0
 21 22  1  0
 22 23  2  0
 23 24  1  0
 24 25  1  0
 25 26  1  0
 26 27  3  0
 24 28  2  0
 28 29  1  0
 29 30  2  0
 30 31  1  0
 19 32  2  0
 14 33  1  0
 33  2  1  0
 32 15  1  0
 31 20  1  0
 29 21  1  0
M  END

