
     RDKit          2D

 42 46  0  0  0  0  0  0  0  0999 V2000
    5.2500   -1.2990    0.0000 C   0  0  0  0  0  0  0  0  0  0  0  0
    3.7500   -1.2990    0.0000 C   0  0  0  0  0  0  0  0  0  0  0  0
    3.0000   -2.5981    0.0000 O   0  0  0  0  0  0  0  0  0  0  0  0
    3.0000    0.0000    0.0000 N   0  0  0  0  0  0  0  0  0  0  0  0
    1.5000    0.0000    0.0000 C   0  0  0  0  0  0  0  0  0  0  0  0
    0.7500   -1.2990    0.0000 C   0  0  0  0  0  0  0  0  0  0  0  0
    1.5000   -2.5981    0.0000 N   0  0  0  0  0  0  0  0  0  0  0  0
   -0.7500   -1.2990    0.0000 N   0  0  0  0  0  0  0  0  0  0  0  0
   -1.5000    0.0000    0.0000 C   0  0  0  0  0  0  0  0  0  0  0  0
   -0.7500    1.2990    0.0000 N   0  0  0  0  0  0  0  0  0  0  0  0
    0.7500    1.2990    0.0000 C   0  0  0  0  0  0  0  0  0  0  0  0
    1.5000    2.5981    0.0000 N   0  0  0  0  0  0  0  0  0  0  0  0
    0.8899    3.9684    0.0000 C   0  0  0  0  0  0  0  0  0  0  0  0
    2.0046    4.9721    0.0000 C   0  0  0  0  0  0  0  0  0  0  0  0
    3.3037    5.7221    0.0000 C   0  0  0  0  0  0  0  0  0  0  0  0
    3.3037    4.2221    0.0000 C   0  0  0  0  0  0  0  0  0  0  0  0
    4.7954    4.0653    0.0000 C   0  0  0  0  0  0  0  0  0  0  0  0
    5.7991    5.1800    0.0000 N   0  0  0  0  0  0  0  0  0  0  0  0
    7.1694    4.5699    0.0000 C   0  0  0  0  0  0  0  0  0  0  0  0
    8.4685    5.3199    0.0000 C   0  0  0  0  0  0  0  0  0  0  0  0
    9.7675    4.5699    0.0000 N   0  0  0  0  0  0  0  0  0  0  0  0
   11.0666    5.3199    0.0000 C   0  0  0  0  0  0  0  0  0  0  0  0
   12.3656    4.5699    0.0000 O   0  0  0  0  0  0  0  0  0  0  0  0
   12.3656    3.0699    0.0000 C   0  0  0  0  0  0  0  0  0  0  0  0
   13.6646    2.3199    0.0000 C   0  0  0  0  0  0  0  0  0  0  0  0
   13.6646    0.8199    0.0000 O   0  0  0  0  0  0  0  0  0  0  0  0
   14.9637    0.0699    0.0000 C   0  0  0  0  0  0  0  0  0  0  0  0
   14.9637   -1.4301    0.0000 C   0  0  0  0  0  0  0  0  0  0  0  0
   16.2627   -2.1801    0.0000 F   0  0  0  0  0  0  0  0  0  0  0  0
   11.0666    6.8199    0.0000 N   0  0  0  0  0  0  0  0  0  0  0  0
    9.7675    7.5699    0.0000 C   0  0  0  0  0  0  0  0  0  0  0  0
    8.4685    6.8199    0.0000 C   0  0  0  0  0  0  0  0  0  0  0  0
    7.1694    7.5699    0.0000 C   0  0  0  0  0  0  0  0  0  0  0  0
    5.8704    8.3199    0.0000 F   0  0  0  0  0  0  0  0  0  0  0  0
    7.9194    8.8689    0.0000 F   0  0  0  0  0  0  0  0  0  0  0  0
    6.4194    6.2709    0.0000 F   0  0  0  0  0  0  0  0  0  0  0  0
    7.0127    3.0781    0.0000 C   0  0  0  0  0  0  0  0  0  0  0  0
    5.5454    2.7663    0.0000 N   0  0  0  0  0  0  0  0  0  0  0  0
    4.9353    1.3959    0.0000 C   0  0  0  0  0  0  0  0  0  0  0  0
    5.8170    0.1824    0.0000 C   0  0  0  0  0  0  0  0  0  0  0  0
    7.3088    0.3392    0.0000 O   0  0  0  0  0  0  0  0  0  0  0  0
    2.9918    2.7549    0.0000 C   0  0  0  0  0  0  0  0  0  0  0  0
  1  2  1  0
  2  3  2  0
  2  4  1  0
  4  5  1  0
  5  6  2  0
  6  7  1  0
  6  8  1  0
  8  9  2  0
  9 10  1  0
 10 11  2  0
 11 12  1  0
 12 13  1  0
 14 13  1  1
 14 15  1  0
 15 16  1  0
 16 17  1  6
 17 18  2  0
 18 19  1  0
 19 20  1  0
 20 21  2  0
 21 22  1  0
 22 23  1  0
 23 24  1  0
 24 25  1  0
 25 26  1  0
 26 27  1  0
 27 28  1  0
 28 29  1  0
 22 30  2  0
 30 31  1  0
 31 32  2  0
 32 33  1  0
 33 34  1  0
 33 35  1  0
 33 36  1  0
 19 37  2  0
 37 38  1  0
 38 39  1  0
 39 40  1  0
 40 41  1  0
 16 42  1  0
 11  5  1  0
 42 12  1  0
 16 14  1  0
 38 17  1  0
 32 20  1  0
M  END

