
     RDKit          2D

 38 43  0  0  0  0  0  0  0  0999 V2000
    3.0000    0.0000    0.0000 C   0  0  0  0  0  0  0  0  0  0  0  0
    1.5000    0.0000    0.0000 C   0  0  0  0  0  0  0  0  0  0  0  0
    0.7500   -1.2990    0.0000 C   0  0  0  0  0  0  0  0  0  0  0  0
   -0.7500   -1.2990    0.0000 C   0  0  0  0  0  0  0  0  0  0  0  0
   -1.5000    0.0000    0.0000 C   0  0  0  0  0  0  0  0  0  0  0  0
   -3.0000    0.0000    0.0000 C   0  0  0  0  0  0  0  0  0  0  0  0
   -3.7500    1.2990    0.0000 C   0  0  0  0  0  0  0  0  0  0  0  0
   -3.0000    2.5981    0.0000 N   0  0  0  0  0  0  0  0  0  0  0  0
   -5.2500    1.2990    0.0000 N   0  0  0  0  0  0  0  0  0  0  0  0
   -6.0000    0.0000    0.0000 C   0  0  0  0  0  0  0  0  0  0  0  0
   -5.2500   -1.2990    0.0000 N   0  0  0  0  0  0  0  0  0  0  0  0
   -3.7500   -1.2990    0.0000 C   0  0  0  0  0  0  0  0  0  0  0  0
   -3.0000   -2.5981    0.0000 N   0  0  0  0  0  0  0  0  0  0  0  0
   -1.5082   -2.7549    0.0000 C   0  0  0  0  0  0  0  0  0  0  0  0
   -1.1963   -4.2221    0.0000 C   0  0  0  0  0  0  0  0  0  0  0  0
   -1.1963   -5.7221    0.0000 C   0  0  0  0  0  0  0  0  0  0  0  0
   -2.4954   -4.9721    0.0000 C   0  0  0  0  0  0  0  0  0  0  0  0
   -3.3771   -6.1856    0.0000 C   0  0  0  0  0  0  0  0  0  0  0  0
   -2.9135   -7.6122    0.0000 N   0  0  0  0  0  0  0  0  0  0  0  0
   -4.1271   -8.4939    0.0000 C   0  0  0  0  0  0  0  0  0  0  0  0
   -4.1271   -9.9939    0.0000 C   0  0  0  0  0  0  0  0  0  0  0  0
   -5.4261  -10.7439    0.0000 C   0  0  0  0  0  0  0  0  0  0  0  0
   -5.4261  -12.2439    0.0000 C   0  0  0  0  0  0  0  0  0  0  0  0
   -6.7251  -12.9939    0.0000 F   0  0  0  0  0  0  0  0  0  0  0  0
   -4.1271  -12.9939    0.0000 C   0  0  0  0  0  0  0  0  0  0  0  0
   -2.8280  -12.2439    0.0000 C   0  0  0  0  0  0  0  0  0  0  0  0
   -2.8280  -10.7439    0.0000 C   0  0  0  0  0  0  0  0  0  0  0  0
   -1.5290   -9.9939    0.0000 C   0  0  0  0  0  0  0  0  0  0  0  0
   -0.2300   -9.2439    0.0000 F   0  0  0  0  0  0  0  0  0  0  0  0
   -0.7790  -11.2929    0.0000 F   0  0  0  0  0  0  0  0  0  0  0  0
   -2.2790   -8.6948    0.0000 F   0  0  0  0  0  0  0  0  0  0  0  0
   -5.3406   -7.6122    0.0000 C   0  0  0  0  0  0  0  0  0  0  0  0
   -4.8771   -6.1856    0.0000 N   0  0  0  0  0  0  0  0  0  0  0  0
   -5.7587   -4.9721    0.0000 C   0  0  0  0  0  0  0  0  0  0  0  0
   -7.2505   -5.1289    0.0000 N   0  0  0  0  0  0  0  0  0  0  0  0
   -3.6101   -3.9684    0.0000 C   0  0  0  0  0  0  0  0  0  0  0  0
   -0.7500    1.2990    0.0000 C   0  0  0  0  0  0  0  0  0  0  0  0
    0.7500    1.2990    0.0000 C   0  0  0  0  0  0  0  0  0  0  0  0
  1  2  1  0
  2  3  2  0
  3  4  1  0
  4  5  2  0
  5  6  1  0
  6  7  2  0
  7  8  1  0
  7  9  1  0
  9 10  2  0
 10 11  1  0
 11 12  2  0
 12 13  1  0
 13 14  1  0
 15 14  1  1
 15 16  1  0
 16 17  1  0
 17 18  1  6
 18 19  2  0
 19 20  1  0
 20 21  1  0
 21 22  2  0
 22 23  1  0
 23 24  1  0
 23 25  2  0
 25 26  1  0
 26 27  2  0
 27 28  1  0
 28 29  1  0
 28 30  1  0
 28 31  1  0
 20 32  2  0
 32 33  1  0
 33 34  1  0
 34 35  1  0
 17 36  1  0
  5 37  1  0
 37 38  2  0
 38  2  1  0
 12  6  1  0
 36 13  1  0
 17 15  1  0
 33 18  1  0
 27 21  1  0
M  END

