
     RDKit          2D

 33 35  0  0  0  0  0  0  0  0999 V2000
   -3.1275   -0.4182    0.0000 C   0  0  0  0  0  0  0  0  0  0  0  0
   -2.2458   -1.6317    0.0000 C   0  0  0  0  0  0  0  0  0  0  0  0
   -1.3641   -2.8452    0.0000 C   0  0  0  0  0  0  0  0  0  0  0  0
   -3.4593   -2.5134    0.0000 C   0  0  0  0  0  0  0  0  0  0  0  0
    0.3943    1.2135    0.0000 C   0  0  0  0  0  0  0  0  0  0  0  0
    1.2760    0.0000    0.0000 C   0  0  0  0  0  0  0  0  0  0  0  0
    0.3943   -1.2135    0.0000 S   0  0  0  0  0  0  0  0  0  0  0  0
   -1.0323   -0.7500    0.0000 C   0  0  0  0  0  0  0  0  0  0  0  0
   -1.0323    0.7500    0.0000 N   0  0  0  0  0  0  0  0  0  0  0  0
    2.2844    3.1036    0.0000 C   0  0  0  0  0  0  0  0  0  0  0  0
    2.2844    4.6036    0.0000 N   0  0  0  0  0  0  0  0  0  0  0  0
    0.8578    5.0672    0.0000 C   0  0  0  0  0  0  0  0  0  0  0  0
   -0.0239    3.8536    0.0000 S   0  0  0  0  0  0  0  0  0  0  0  0
    0.8578    2.6401    0.0000 C   0  0  0  0  0  0  0  0  0  0  0  0
   -1.0729    6.8056    0.0000 O   0  0  0  0  0  0  0  0  0  0  0  0
    0.3943    6.4937    0.0000 C   0  0  0  0  0  0  0  0  0  0  0  0
    1.3980    7.6085    0.0000 N   0  0  0  0  0  0  0  0  0  0  0  0
    1.8161   10.2486    0.0000 N   0  0  0  0  0  0  0  0  0  0  0  0
    0.9345   11.4621    0.0000 C   0  0  0  0  0  0  0  0  0  0  0  0
   -0.4921   10.9986    0.0000 C   0  0  0  0  0  0  0  0  0  0  0  0
   -0.4921    9.4986    0.0000 C   0  0  0  0  0  0  0  0  0  0  0  0
    0.9345    9.0350    0.0000 C   0  0  0  0  0  0  0  0  0  0  0  0
   -2.7624   14.2537    0.0000 N   0  0  0  0  0  0  0  0  0  0  0  0
   -1.5488   13.3720    0.0000 C   0  0  0  0  0  0  0  0  0  0  0  0
   -0.1785   13.9821    0.0000 O   0  0  0  0  0  0  0  0  0  0  0  0
   -1.7056   11.8803    0.0000 C   0  0  0  0  0  0  0  0  0  0  0  0
    4.0661   11.5476    0.0000 C   0  0  0  0  0  0  0  0  0  0  0  0
    3.3161   10.2486    0.0000 N   0  0  0  0  0  0  0  0  0  0  0  0
    4.0661    8.9495    0.0000 C   0  0  0  0  0  0  0  0  0  0  0  0
    4.5547   -0.1515    0.0000 C   0  0  0  0  0  0  0  0  0  0  0  0
    3.3411    0.7302    0.0000 C   0  0  0  0  0  0  0  0  0  0  0  0
    3.4979    2.2220    0.0000 C   0  0  0  0  0  0  0  0  0  0  0  0
    4.8683    2.8321    0.0000 C   0  0  0  0  0  0  0  0  0  0  0  0
  1  2  1  0
  2  3  1  0
  2  4  1  0
  5  6  2  0
  6  7  1  0
  7  8  1  0
  8  9  2  0
  9  5  1  0
 10 11  1  0
 11 12  2  0
 12 13  1  0
 13 14  1  0
 14 10  2  0
 15 16  2  0
 16 17  1  0
 18 19  1  0
 19 20  1  0
 20 21  1  0
 21 22  1  0
 22 18  1  0
 23 24  1  0
 24 25  2  0
 24 26  1  0
 27 28  1  0
 28 29  1  0
 30 31  1  0
 31 32  1  0
 32 33  2  0
  2  8  1  0
  5 14  1  0
 12 16  1  0
 22 17  1  1
 20 26  1  1
 18 28  1  0
 10 32  1  0
M  END

