
     RDKit          2D

 34 38  0  0  0  0  0  0  0  0999 V2000
   -3.3248   -0.5897    0.0000 C   0  0  0  0  0  0  0  0  0  0  0  0
   -4.4038    0.4523    0.0000 F   0  0  0  0  0  0  0  0  0  0  0  0
   -4.3668   -1.6687    0.0000 F   0  0  0  0  0  0  0  0  0  0  0  0
   -2.2828    0.4893    0.0000 F   0  0  0  0  0  0  0  0  0  0  0  0
   -2.2458   -1.6317    0.0000 C   0  0  0  0  0  0  0  0  0  0  0  0
   -3.0846   -2.8752    0.0000 C   0  0  0  0  0  0  0  0  0  0  0  0
   -1.5883   -2.9799    0.0000 C   0  0  0  0  0  0  0  0  0  0  0  0
    0.3943    1.2135    0.0000 C   0  0  0  0  0  0  0  0  0  0  0  0
    1.2760    0.0000    0.0000 C   0  0  0  0  0  0  0  0  0  0  0  0
    0.3943   -1.2135    0.0000 S   0  0  0  0  0  0  0  0  0  0  0  0
   -1.0323   -0.7500    0.0000 C   0  0  0  0  0  0  0  0  0  0  0  0
   -1.0323    0.7500    0.0000 N   0  0  0  0  0  0  0  0  0  0  0  0
    2.2844    3.1036    0.0000 C   0  0  0  0  0  0  0  0  0  0  0  0
    2.2844    4.6036    0.0000 N   0  0  0  0  0  0  0  0  0  0  0  0
    0.8578    5.0672    0.0000 C   0  0  0  0  0  0  0  0  0  0  0  0
   -0.0239    3.8536    0.0000 S   0  0  0  0  0  0  0  0  0  0  0  0
    0.8578    2.6401    0.0000 C   0  0  0  0  0  0  0  0  0  0  0  0
   -1.0323    8.4573    0.0000 N   0  0  0  0  0  0  0  0  0  0  0  0
    0.3943    8.9208    0.0000 C   0  0  0  0  0  0  0  0  0  0  0  0
    0.8578   10.3474    0.0000 O   0  0  0  0  0  0  0  0  0  0  0  0
    1.2760    7.7073    0.0000 C   0  0  0  0  0  0  0  0  0  0  0  0
    0.3943    6.4937    0.0000 C   0  0  0  0  0  0  0  0  0  0  0  0
   -1.0323    6.9573    0.0000 C   0  0  0  0  0  0  0  0  0  0  0  0
   -2.2458    6.0756    0.0000 O   0  0  0  0  0  0  0  0  0  0  0  0
   -2.2458   10.8389    0.0000 N   0  0  0  0  0  0  0  0  0  0  0  0
   -3.6724   11.3025    0.0000 C   0  0  0  0  0  0  0  0  0  0  0  0
   -4.5541   10.0889    0.0000 C   0  0  0  0  0  0  0  0  0  0  0  0
   -3.6724    8.8754    0.0000 C   0  0  0  0  0  0  0  0  0  0  0  0
   -2.2458    9.3389    0.0000 C   0  0  0  0  0  0  0  0  0  0  0  0
   -4.1359    7.4488    0.0000 C   0  0  0  0  0  0  0  0  0  0  0  0
   -5.6031    7.1370    0.0000 C   0  0  0  0  0  0  0  0  0  0  0  0
   -3.1322    6.3341    0.0000 O   0  0  0  0  0  0  0  0  0  0  0  0
   -1.0323   11.7206    0.0000 O   0  0  0  0  0  0  0  0  0  0  0  0
    3.4979    2.2220    0.0000 C   0  0  0  0  0  0  0  0  0  0  0  0
  1  2  1  0
  1  3  1  0
  1  4  1  0
  5  6  1  0
  6  7  1  0
  7  5  1  0
  8  9  2  0
  9 10  1  0
 10 11  1  0
 11 12  2  0
 12  8  1  0
 13 14  1  0
 14 15  2  0
 15 16  1  0
 16 17  1  0
 17 13  2  0
 18 19  1  0
 19 20  2  0
 19 21  1  0
 21 22  2  0
 22 23  1  0
 23 24  2  0
 23 18  1  0
 25 26  1  0
 26 27  1  0
 27 28  1  0
 28 29  1  0
 29 25  1  0
 30 31  1  0
 30 32  2  0
  1  5  1  0
  5 11  1  0
  8 17  1  0
 15 22  1  0
 29 18  1  6
 28 30  1  1
 25 33  1  0
 13 34  1  0
M  END

