
     RDKit          2D

 35 38  0  0  0  0  0  0  0  0999 V2000
    0.7500   -1.2990    0.0000 C   0  0  0  0  0  0  0  0  0  0  0  0
    1.5000    0.0000    0.0000 C   0  0  0  0  0  0  0  0  0  0  0  0
    0.7500    1.2990    0.0000 C   0  0  0  0  0  0  0  0  0  0  0  0
   -0.7500    1.2990    0.0000 C   0  0  0  0  0  0  0  0  0  0  0  0
   -1.5000    0.0000    0.0000 C   0  0  0  0  0  0  0  0  0  0  0  0
   -0.7500   -1.2990    0.0000 C   0  0  0  0  0  0  0  0  0  0  0  0
    1.5000   -2.5981    0.0000 C   0  0  0  0  0  0  0  0  0  0  0  0
   -0.7500   -6.4952    0.0000 C   0  0  0  0  0  0  0  0  0  0  0  0
    0.7500   -6.4952    0.0000 N   0  0  0  0  0  0  0  0  0  0  0  0
    1.5000   -5.1962    0.0000 C   0  0  0  0  0  0  0  0  0  0  0  0
    0.7500   -3.8971    0.0000 C   0  0  0  0  0  0  0  0  0  0  0  0
   -0.7500   -3.8971    0.0000 C   0  0  0  0  0  0  0  0  0  0  0  0
   -1.5000   -5.1962    0.0000 N   0  0  0  0  0  0  0  0  0  0  0  0
   -0.8899   -9.1645    0.0000 N   0  0  0  0  0  0  0  0  0  0  0  0
   -2.0046  -10.1682    0.0000 N   0  0  0  0  0  0  0  0  0  0  0  0
   -3.3037   -9.4182    0.0000 C   0  0  0  0  0  0  0  0  0  0  0  0
   -2.9918   -7.9510    0.0000 C   0  0  0  0  0  0  0  0  0  0  0  0
   -1.5000   -7.7942    0.0000 C   0  0  0  0  0  0  0  0  0  0  0  0
   -6.9442   -6.7732    0.0000 F   0  0  0  0  0  0  0  0  0  0  0  0
   -7.1010   -8.2650    0.0000 C   0  0  0  0  0  0  0  0  0  0  0  0
   -8.4713   -8.8751    0.0000 F   0  0  0  0  0  0  0  0  0  0  0  0
   -5.8875   -9.1467    0.0000 C   0  0  0  0  0  0  0  0  0  0  0  0
   -5.0058   -7.9331    0.0000 F   0  0  0  0  0  0  0  0  0  0  0  0
   -6.7692  -10.3602    0.0000 F   0  0  0  0  0  0  0  0  0  0  0  0
   -4.6740  -10.0283    0.0000 O   0  0  0  0  0  0  0  0  0  0  0  0
    3.5118  -10.1001    0.0000 C   0  0  0  0  0  0  0  0  0  0  0  0
    2.5081  -11.2149    0.0000 C   0  0  0  0  0  0  0  0  0  0  0  0
    1.0409  -10.9030    0.0000 C   0  0  0  0  0  0  0  0  0  0  0  0
    0.5773   -9.4764    0.0000 C   0  0  0  0  0  0  0  0  0  0  0  0
    1.5810   -8.3617    0.0000 C   0  0  0  0  0  0  0  0  0  0  0  0
    3.0482   -8.6736    0.0000 C   0  0  0  0  0  0  0  0  0  0  0  0
    6.4462  -10.7239    0.0000 N   0  0  0  0  0  0  0  0  0  0  0  0
    4.9790  -10.4120    0.0000 S   0  0  0  0  0  0  0  0  0  0  0  0
    4.6671  -11.8792    0.0000 O   0  0  0  0  0  0  0  0  0  0  0  0
    5.2909   -8.9448    0.0000 O   0  0  0  0  0  0  0  0  0  0  0  0
  1  2  2  0
  2  3  1  0
  3  4  2  0
  4  5  1  0
  5  6  2  0
  6  1  1  0
  8  9  2  0
  9 10  1  0
 10 11  2  0
 11 12  1  0
 12 13  2  0
 13  8  1  0
 14 15  1  0
 15 16  2  0
 16 17  1  0
 17 18  2  0
 18 14  1  0
 19 20  1  0
 20 21  1  0
 20 22  1  0
 22 23  1  0
 22 24  1  0
 22 25  1  0
 26 27  2  0
 27 28  1  0
 28 29  2  0
 29 30  1  0
 30 31  2  0
 31 26  1  0
 32 33  1  0
 33 34  2  0
 33 35  2  0
  1  7  1  0
  7 11  1  0
  8 18  1  0
 16 25  1  0
 14 29  1  0
 26 33  1  0
M  END

