
     RDKit          2D

 41 44  0  0  0  0  0  0  0  0999 V2000
    0.7500   -1.2990    0.0000 C   0  0  0  0  0  0  0  0  0  0  0  0
    1.5000    0.0000    0.0000 N   0  0  0  0  0  0  0  0  0  0  0  0
    0.7500    1.2990    0.0000 C   0  0  0  0  0  0  0  0  0  0  0  0
   -0.7500    1.2990    0.0000 N   0  0  0  0  0  0  0  0  0  0  0  0
   -1.5000    0.0000    0.0000 C   0  0  0  0  0  0  0  0  0  0  0  0
   -0.7500   -1.2990    0.0000 N   0  0  0  0  0  0  0  0  0  0  0  0
   -0.5490   -3.1471    0.0000 O   0  0  0  0  0  0  0  0  0  0  0  0
    0.7500   -3.8971    0.0000 S   0  0  0  0  0  0  0  0  0  0  0  0
    2.0490   -4.6471    0.0000 O   0  0  0  0  0  0  0  0  0  0  0  0
    1.5000   -2.5981    0.0000 N   0  0  0  0  0  0  0  0  0  0  0  0
   -1.5000   -7.7942    0.0000 C   0  0  0  0  0  0  0  0  0  0  0  0
   -0.0000   -7.7942    0.0000 N   0  0  0  0  0  0  0  0  0  0  0  0
    0.7500   -6.4952    0.0000 C   0  0  0  0  0  0  0  0  0  0  0  0
   -0.0000   -5.1962    0.0000 C   0  0  0  0  0  0  0  0  0  0  0  0
   -1.5000   -5.1962    0.0000 C   0  0  0  0  0  0  0  0  0  0  0  0
   -2.2500   -6.4952    0.0000 N   0  0  0  0  0  0  0  0  0  0  0  0
   -1.5000  -10.3923    0.0000 O   0  0  0  0  0  0  0  0  0  0  0  0
   -2.2500   -9.0933    0.0000 C   0  0  0  0  0  0  0  0  0  0  0  0
   -3.7500   -9.0933    0.0000 N   0  0  0  0  0  0  0  0  0  0  0  0
   -4.5000  -10.3923    0.0000 C   0  0  0  0  0  0  0  0  0  0  0  0
   -6.0000  -10.3923    0.0000 C   0  0  0  0  0  0  0  0  0  0  0  0
   -6.7500  -11.6913    0.0000 C   0  0  0  0  0  0  0  0  0  0  0  0
   -6.0000  -12.9904    0.0000 C   0  0  0  0  0  0  0  0  0  0  0  0
   -4.6727  -15.9716    0.0000 O   0  0  0  0  0  0  0  0  0  0  0  0
   -6.1399  -15.6597    0.0000 C   0  0  0  0  0  0  0  0  0  0  0  0
   -6.7500  -14.2894    0.0000 C   0  0  0  0  0  0  0  0  0  0  0  0
   -8.2418  -14.4462    0.0000 C   0  0  0  0  0  0  0  0  0  0  0  0
   -8.5537  -15.9134    0.0000 N   0  0  0  0  0  0  0  0  0  0  0  0
   -7.2546  -16.6634    0.0000 N   0  0  0  0  0  0  0  0  0  0  0  0
   -5.7275  -18.7653    0.0000 S   0  0  0  0  0  0  0  0  0  0  0  0
   -7.0978  -18.1552    0.0000 C   0  0  0  0  0  0  0  0  0  0  0  0
  -10.7384  -20.8002    0.0000 C   0  0  0  0  0  0  0  0  0  0  0  0
  -10.8952  -19.3085    0.0000 C   0  0  0  0  0  0  0  0  0  0  0  0
   -9.6817  -18.4268    0.0000 C   0  0  0  0  0  0  0  0  0  0  0  0
   -8.3113  -19.0369    0.0000 C   0  0  0  0  0  0  0  0  0  0  0  0
   -8.1546  -20.5287    0.0000 C   0  0  0  0  0  0  0  0  0  0  0  0
   -9.3681  -21.4104    0.0000 C   0  0  0  0  0  0  0  0  0  0  0  0
  -11.9519  -21.6819    0.0000 Cl  0  0  0  0  0  0  0  0  0  0  0  0
  -12.1799  -13.9552    0.0000 C   0  0  0  0  0  0  0  0  0  0  0  0
  -10.7127  -13.6434    0.0000 C   0  0  0  0  0  0  0  0  0  0  0  0
   -9.2455  -13.3315    0.0000 C   0  0  0  0  0  0  0  0  0  0  0  0
  1  2  2  0
  2  3  1  0
  3  4  2  0
  4  5  1  0
  5  6  2  0
  6  1  1  0
  7  8  2  0
  8  9  2  0
  8 10  1  0
 11 12  2  0
 12 13  1  0
 13 14  2  0
 14 15  1  0
 15 16  2  0
 16 11  1  0
 17 18  2  0
 18 19  1  0
 19 20  1  0
 20 21  1  0
 21 22  2  0
 22 23  1  0
 24 25  2  0
 25 26  1  0
 26 27  1  0
 27 28  2  0
 28 29  1  0
 29 25  1  0
 30 31  2  0
 32 33  2  0
 33 34  1  0
 34 35  2  0
 35 36  1  0
 36 37  2  0
 37 32  1  0
 39 40  3  0
 40 41  1  0
  1 10  1  0
  8 14  1  0
 11 18  1  0
 23 26  1  0
 29 31  1  0
 31 35  1  0
 32 38  1  0
 27 41  1  0
M  END

