
     RDKit          2D

 28 31  0  0  0  0  0  0  0  0999 V2000
    9.0933   -4.3573    0.0000 F   0  0  0  0  0  0  0  0  0  0  0  0
    5.1962   -6.6073    0.0000 C   0  0  0  0  0  0  0  0  0  0  0  0
    6.4952   -7.3573    0.0000 C   0  0  0  0  0  0  0  0  0  0  0  0
    7.7942   -6.6073    0.0000 C   0  0  0  0  0  0  0  0  0  0  0  0
    7.7942   -5.1073    0.0000 C   0  0  0  0  0  0  0  0  0  0  0  0
    6.4952   -4.3573    0.0000 N   0  0  0  0  0  0  0  0  0  0  0  0
    5.1962   -5.1073    0.0000 C   0  0  0  0  0  0  0  0  0  0  0  0
    2.5981   -8.1073    0.0000 N   0  0  0  0  0  0  0  0  0  0  0  0
    3.8971   -7.3573    0.0000 S   0  0  0  0  0  0  0  0  0  0  0  0
    3.1471   -6.0583    0.0000 O   0  0  0  0  0  0  0  0  0  0  0  0
    4.6471   -8.6563    0.0000 O   0  0  0  0  0  0  0  0  0  0  0  0
    0.0000   -8.1073    0.0000 C   0  0  0  0  0  0  0  0  0  0  0  0
   -1.2990   -7.3573    0.0000 N   0  0  0  0  0  0  0  0  0  0  0  0
   -1.2990   -5.8573    0.0000 C   0  0  0  0  0  0  0  0  0  0  0  0
   -0.0000   -5.1073    0.0000 C   0  0  0  0  0  0  0  0  0  0  0  0
    1.2990   -5.8573    0.0000 C   0  0  0  0  0  0  0  0  0  0  0  0
    1.2990   -7.3573    0.0000 C   0  0  0  0  0  0  0  0  0  0  0  0
   -0.0000   -3.6073    0.0000 C   0  0  0  0  0  0  0  0  0  0  0  0
    1.2135   -2.7256    0.0000 C   0  0  0  0  0  0  0  0  0  0  0  0
    0.7500   -1.2990    0.0000 C   0  0  0  0  0  0  0  0  0  0  0  0
    1.5000    0.0000    0.0000 C   0  0  0  0  0  0  0  0  0  0  0  0
    0.7500    1.2990    0.0000 C   0  0  0  0  0  0  0  0  0  0  0  0
   -0.7500    1.2990    0.0000 C   0  0  0  0  0  0  0  0  0  0  0  0
   -1.5000    0.0000    0.0000 N   0  0  0  0  0  0  0  0  0  0  0  0
   -0.7500   -1.2990    0.0000 C   0  0  0  0  0  0  0  0  0  0  0  0
   -1.2135   -2.7256    0.0000 S   0  0  0  0  0  0  0  0  0  0  0  0
   -1.2990  -10.3573    0.0000 C   0  0  0  0  0  0  0  0  0  0  0  0
    0.0000   -9.6073    0.0000 O   0  0  0  0  0  0  0  0  0  0  0  0
  2  3  2  0
  3  4  1  0
  4  5  2  0
  5  6  1  0
  6  7  2  0
  7  2  1  0
  8  9  1  0
  9 10  2  0
  9 11  2  0
 12 13  2  0
 13 14  1  0
 14 15  2  0
 15 16  1  0
 16 17  2  0
 17 12  1  0
 18 19  2  0
 19 20  1  0
 20 21  2  0
 21 22  1  0
 22 23  2  0
 23 24  1  0
 24 25  2  0
 25 26  1  0
 26 18  1  0
 25 20  1  0
 27 28  1  0
  1  5  1  0
  2  9  1  0
  8 17  1  0
 15 18  1  0
 12 28  1  0
M  ISO  1   1  18
M  END

