
     RDKit          2D

 44 49  0  0  0  0  0  0  0  0999 V2000
   -1.4369  -23.8387    0.0000 C   0  0  0  0  0  0  0  0  0  0  0  0
   -3.1753  -21.9079    0.0000 N   0  0  0  0  0  0  0  0  0  0  0  0
   -3.4872  -20.4407    0.0000 C   0  0  0  0  0  0  0  0  0  0  0  0
   -2.3725  -19.4370    0.0000 C   0  0  0  0  0  0  0  0  0  0  0  0
   -0.9459  -19.9005    0.0000 N   0  0  0  0  0  0  0  0  0  0  0  0
   -0.6340  -21.3677    0.0000 C   0  0  0  0  0  0  0  0  0  0  0  0
   -1.7487  -22.3714    0.0000 C   0  0  0  0  0  0  0  0  0  0  0  0
    1.5954  -19.3604    0.0000 O   0  0  0  0  0  0  0  0  0  0  0  0
    0.1688  -18.8968    0.0000 C   0  0  0  0  0  0  0  0  0  0  0  0
   -0.7668  -14.4952    0.0000 C   0  0  0  0  0  0  0  0  0  0  0  0
   -1.8815  -15.4989    0.0000 C   0  0  0  0  0  0  0  0  0  0  0  0
   -1.5696  -16.9661    0.0000 C   0  0  0  0  0  0  0  0  0  0  0  0
   -0.1430  -17.4296    0.0000 C   0  0  0  0  0  0  0  0  0  0  0  0
    0.9717  -16.4259    0.0000 C   0  0  0  0  0  0  0  0  0  0  0  0
    0.6598  -14.9587    0.0000 C   0  0  0  0  0  0  0  0  0  0  0  0
   -1.7024  -10.0935    0.0000 N   0  0  0  0  0  0  0  0  0  0  0  0
   -0.2758  -10.5570    0.0000 C   0  0  0  0  0  0  0  0  0  0  0  0
    0.8389   -9.5533    0.0000 C   0  0  0  0  0  0  0  0  0  0  0  0
    0.0361  -12.0242    0.0000 C   0  0  0  0  0  0  0  0  0  0  0  0
    1.4627  -12.4878    0.0000 O   0  0  0  0  0  0  0  0  0  0  0  0
   -1.0786  -13.0279    0.0000 N   0  0  0  0  0  0  0  0  0  0  0  0
   -0.0967   -5.1517    0.0000 C   0  0  0  0  0  0  0  0  0  0  0  0
   -1.2114   -6.1554    0.0000 C   0  0  0  0  0  0  0  0  0  0  0  0
   -0.8995   -7.6226    0.0000 C   0  0  0  0  0  0  0  0  0  0  0  0
    0.5271   -8.0861    0.0000 C   0  0  0  0  0  0  0  0  0  0  0  0
    1.6418   -7.0824    0.0000 C   0  0  0  0  0  0  0  0  0  0  0  0
    1.3299   -5.6152    0.0000 C   0  0  0  0  0  0  0  0  0  0  0  0
    1.2760    0.0000    0.0000 N   0  0  0  0  0  0  0  0  0  0  0  0
    0.3943    1.2135    0.0000 N   0  0  0  0  0  0  0  0  0  0  0  0
   -1.0323    0.7500    0.0000 N   0  0  0  0  0  0  0  0  0  0  0  0
   -1.0323   -0.7500    0.0000 C   0  0  0  0  0  0  0  0  0  0  0  0
   -2.1470   -1.7537    0.0000 C   0  0  0  0  0  0  0  0  0  0  0  0
   -1.8351   -3.2209    0.0000 N   0  0  0  0  0  0  0  0  0  0  0  0
   -0.4086   -3.6844    0.0000 C   0  0  0  0  0  0  0  0  0  0  0  0
    0.7062   -2.6807    0.0000 N   0  0  0  0  0  0  0  0  0  0  0  0
    0.3943   -1.2135    0.0000 C   0  0  0  0  0  0  0  0  0  0  0  0
   -3.5736   -1.2902    0.0000 N   0  0  0  0  0  0  0  0  0  0  0  0
   -3.8855    0.1771    0.0000 C   0  0  0  0  0  0  0  0  0  0  0  0
   -5.3120    0.6406    0.0000 C   0  0  0  0  0  0  0  0  0  0  0  0
   -6.4268   -0.3631    0.0000 O   0  0  0  0  0  0  0  0  0  0  0  0
   -6.1149   -1.8303    0.0000 C   0  0  0  0  0  0  0  0  0  0  0  0
   -4.6883   -2.2939    0.0000 C   0  0  0  0  0  0  0  0  0  0  0  0
    3.5260    1.2990    0.0000 C   0  0  0  0  0  0  0  0  0  0  0  0
    2.7760    0.0000    0.0000 C   0  0  0  0  0  0  0  0  0  0  0  0
  2  3  1  0
  3  4  1  0
  4  5  1  0
  5  6  1  0
  6  7  1  0
  7  2  1  0
  8  9  2  0
 10 11  2  0
 11 12  1  0
 12 13  2  0
 13 14  1  0
 14 15  2  0
 15 10  1  0
 17 16  1  1
 17 18  1  0
 17 19  1  0
 19 20  2  0
 19 21  1  0
 22 23  2  0
 23 24  1  0
 24 25  2  0
 25 26  1  0
 26 27  2  0
 27 22  1  0
 28 29  1  0
 29 30  2  0
 30 31  1  0
 31 32  2  0
 32 33  1  0
 33 34  2  0
 34 35  1  0
 35 36  2  0
 36 28  1  0
 36 31  1  0
 37 38  1  0
 38 39  1  0
 39 40  1  0
 40 41  1  0
 41 42  1  0
 42 37  1  0
 43 44  1  0
  7  1  1  6
  5  9  1  0
  9 13  1  0
 10 21  1  0
 18 25  1  0
 22 34  1  0
 32 37  1  0
 28 44  1  0
M  END

