
     RDKit          2D

 35 39  0  0  0  0  0  0  0  0999 V2000
    0.7500   -3.8971    0.0000 C   0  0  0  0  0  0  0  0  0  0  0  0
   -0.7500   -3.8971    0.0000 C   0  0  0  0  0  0  0  0  0  0  0  0
   -1.5000   -2.5981    0.0000 C   0  0  0  0  0  0  0  0  0  0  0  0
   -0.7500   -1.2990    0.0000 C   0  0  0  0  0  0  0  0  0  0  0  0
    0.7500   -1.2990    0.0000 C   0  0  0  0  0  0  0  0  0  0  0  0
    1.5000   -2.5981    0.0000 C   0  0  0  0  0  0  0  0  0  0  0  0
    1.5000    0.0000    0.0000 C   0  0  0  0  0  0  0  0  0  0  0  0
    0.7500    1.2990    0.0000 C   0  0  0  0  0  0  0  0  0  0  0  0
   -0.7500    1.2990    0.0000 C   0  0  0  0  0  0  0  0  0  0  0  0
   -1.5000    0.0000    0.0000 C   0  0  0  0  0  0  0  0  0  0  0  0
    0.7500   -9.0933    0.0000 C   0  0  0  0  0  0  0  0  0  0  0  0
    1.5000   -7.7942    0.0000 C   0  0  0  0  0  0  0  0  0  0  0  0
    0.7500   -6.4952    0.0000 N   0  0  0  0  0  0  0  0  0  0  0  0
    1.5000   -5.1962    0.0000 C   0  0  0  0  0  0  0  0  0  0  0  0
    3.3037  -12.0163    0.0000 C   0  0  0  0  0  0  0  0  0  0  0  0
    2.0046  -12.7663    0.0000 C   0  0  0  0  0  0  0  0  0  0  0  0
    0.8899  -11.7626    0.0000 C   0  0  0  0  0  0  0  0  0  0  0  0
    1.5000  -10.3923    0.0000 C   0  0  0  0  0  0  0  0  0  0  0  0
    2.9918  -10.5491    0.0000 O   0  0  0  0  0  0  0  0  0  0  0  0
    7.4146  -13.8466    0.0000 O   0  0  0  0  0  0  0  0  0  0  0  0
    6.2011  -14.7283    0.0000 C   0  0  0  0  0  0  0  0  0  0  0  0
    4.8308  -14.1182    0.0000 C   0  0  0  0  0  0  0  0  0  0  0  0
    4.6740  -12.6264    0.0000 S   0  0  0  0  0  0  0  0  0  0  0  0
    6.3579  -16.2201    0.0000 N   0  0  0  0  0  0  0  0  0  0  0  0
   12.5154  -18.1406    0.0000 C   0  0  0  0  0  0  0  0  0  0  0  0
   11.9053  -19.5109    0.0000 C   0  0  0  0  0  0  0  0  0  0  0  0
   10.4135  -19.6677    0.0000 C   0  0  0  0  0  0  0  0  0  0  0  0
    9.5318  -18.4542    0.0000 C   0  0  0  0  0  0  0  0  0  0  0  0
    8.0401  -18.2974    0.0000 N   0  0  0  0  0  0  0  0  0  0  0  0
    7.7282  -16.8302    0.0000 C   0  0  0  0  0  0  0  0  0  0  0  0
    9.0272  -16.0802    0.0000 S   0  0  0  0  0  0  0  0  0  0  0  0
   10.1419  -17.0839    0.0000 C   0  0  0  0  0  0  0  0  0  0  0  0
   11.6337  -16.9271    0.0000 C   0  0  0  0  0  0  0  0  0  0  0  0
   14.8889  -19.1974    0.0000 C   0  0  0  0  0  0  0  0  0  0  0  0
   14.0072  -17.9838    0.0000 O   0  0  0  0  0  0  0  0  0  0  0  0
  1  2  2  0
  2  3  1  0
  3  4  2  0
  4  5  1  0
  5  6  2  0
  5  7  1  0
  7  8  1  0
  8  9  1  0
  9 10  1  0
  6  1  1  0
 10  4  1  0
 11 12  1  0
 12 13  1  0
 13 14  1  0
 15 16  2  0
 16 17  1  0
 17 18  2  0
 18 19  1  0
 19 15  1  0
 20 21  2  0
 21 22  1  0
 22 23  1  0
 21 24  1  0
 25 26  2  0
 26 27  1  0
 27 28  2  0
 28 29  1  0
 29 30  2  0
 30 31  1  0
 31 32  1  0
 32 33  2  0
 33 25  1  0
 32 28  1  0
 34 35  1  0
  1 14  1  0
 11 18  1  0
 15 23  1  0
 24 30  1  0
 25 35  1  0
M  ISO  1  34  11
M  END

