
     RDKit          2D

 40 43  0  0  0  0  0  0  0  0999 V2000
    4.5000    0.0000    0.0000 C   0  0  0  0  0  0  0  0  0  0  0  0
    3.0000    0.0000    0.0000 C   0  0  0  0  0  0  0  0  0  0  0  0
    1.5000    0.0000    0.0000 C   0  0  0  0  0  0  0  0  0  0  0  0
    0.7500   -1.2990    0.0000 C   0  0  0  0  0  0  0  0  0  0  0  0
    1.5000   -2.5981    0.0000 C   0  0  0  0  0  0  0  0  0  0  0  0
    0.7500   -3.8971    0.0000 C   0  0  0  0  0  0  0  0  0  0  0  0
   -0.7500   -1.2990    0.0000 C   0  0  0  0  0  0  0  0  0  0  0  0
   -1.5000   -2.5981    0.0000 N   0  0  0  0  0  0  0  0  0  0  0  0
   -3.0000   -2.5981    0.0000 C   0  0  0  0  0  0  0  0  0  0  0  0
   -3.7500   -3.8971    0.0000 C   0  0  0  0  0  0  0  0  0  0  0  0
   -3.0000   -5.1962    0.0000 C   0  0  0  0  0  0  0  0  0  0  0  0
   -3.7500   -6.4952    0.0000 C   0  0  0  0  0  0  0  0  0  0  0  0
   -3.1399   -7.8655    0.0000 N   0  0  0  0  0  0  0  0  0  0  0  0
   -4.2546   -8.8692    0.0000 C   0  0  0  0  0  0  0  0  0  0  0  0
   -4.0978  -10.3610    0.0000 C   0  0  0  0  0  0  0  0  0  0  0  0
   -5.3113  -11.2427    0.0000 N   0  0  0  0  0  0  0  0  0  0  0  0
   -5.1546  -12.7344    0.0000 C   0  0  0  0  0  0  0  0  0  0  0  0
   -6.3681  -13.6161    0.0000 O   0  0  0  0  0  0  0  0  0  0  0  0
   -7.7384  -13.0060    0.0000 C   0  0  0  0  0  0  0  0  0  0  0  0
   -7.1283  -11.6357    0.0000 F   0  0  0  0  0  0  0  0  0  0  0  0
   -8.3485  -14.3763    0.0000 F   0  0  0  0  0  0  0  0  0  0  0  0
   -9.1087  -12.3959    0.0000 C   0  0  0  0  0  0  0  0  0  0  0  0
   -9.2655  -10.9041    0.0000 F   0  0  0  0  0  0  0  0  0  0  0  0
  -10.3222  -13.2776    0.0000 F   0  0  0  0  0  0  0  0  0  0  0  0
   -3.7842  -13.3446    0.0000 N   0  0  0  0  0  0  0  0  0  0  0  0
   -2.5707  -12.4629    0.0000 C   0  0  0  0  0  0  0  0  0  0  0  0
   -2.7275  -10.9711    0.0000 C   0  0  0  0  0  0  0  0  0  0  0  0
   -5.5537   -8.1192    0.0000 C   0  0  0  0  0  0  0  0  0  0  0  0
   -5.2418   -6.6520    0.0000 N   0  0  0  0  0  0  0  0  0  0  0  0
   -6.2455   -5.5373    0.0000 N   0  0  0  0  0  0  0  0  0  0  0  0
   -7.7127   -5.8491    0.0000 C   0  0  0  0  0  0  0  0  0  0  0  0
   -8.7164   -4.7344    0.0000 N   0  0  0  0  0  0  0  0  0  0  0  0
  -10.1836   -5.0463    0.0000 C   0  0  0  0  0  0  0  0  0  0  0  0
  -11.1873   -3.9316    0.0000 C   0  0  0  0  0  0  0  0  0  0  0  0
  -12.6545   -4.2434    0.0000 C   0  0  0  0  0  0  0  0  0  0  0  0
   -1.5000   -5.1962    0.0000 C   0  0  0  0  0  0  0  0  0  0  0  0
   -0.7500   -3.8971    0.0000 C   0  0  0  0  0  0  0  0  0  0  0  0
   -1.5000    0.0000    0.0000 N   0  0  0  0  0  0  0  0  0  0  0  0
   -0.7500    1.2990    0.0000 C   0  0  0  0  0  0  0  0  0  0  0  0
    0.7500    1.2990    0.0000 N   0  0  0  0  0  0  0  0  0  0  0  0
  1  2  3  0
  2  3  1  0
  3  4  2  0
  4  5  1  0
  5  6  1  0
  4  7  1  0
  7  8  1  0
  8  9  1  0
  9 10  1  0
 10 11  1  0
 11 12  1  0
 12 13  2  0
 13 14  1  0
 14 15  1  0
 15 16  2  0
 16 17  1  0
 17 18  1  0
 18 19  1  0
 19 20  1  0
 19 21  1  0
 19 22  1  0
 22 23  1  0
 22 24  1  0
 17 25  2  0
 25 26  1  0
 26 27  2  0
 14 28  2  0
 28 29  1  0
 29 30  1  0
 30 31  1  0
 31 32  1  0
 32 33  1  0
 33 34  1  0
 34 35  1  0
 11 36  1  0
 36 37  1  0
  7 38  2  0
 38 39  1  0
 39 40  2  0
 40  3  1  0
 37  8  1  0
 29 12  1  0
 27 15  1  0
M  END

