
     RDKit          2D

 27 29  0  0  0  0  0  0  0  0999 V2000
    0.7500   -1.2990    0.0000 N   0  0  0  0  0  0  0  0  0  0  0  0
    1.5000    0.0000    0.0000 C   0  0  0  0  0  0  0  0  0  0  0  0
    0.7500    1.2990    0.0000 C   0  0  0  0  0  0  0  0  0  0  0  0
   -0.7500    1.2990    0.0000 O   0  0  0  0  0  0  0  0  0  0  0  0
   -1.5000    0.0000    0.0000 C   0  0  0  0  0  0  0  0  0  0  0  0
   -0.7500   -1.2990    0.0000 C   0  0  0  0  0  0  0  0  0  0  0  0
    2.0046   -4.9721    0.0000 C   0  0  0  0  0  0  0  0  0  0  0  0
    3.3037   -4.2221    0.0000 N   0  0  0  0  0  0  0  0  0  0  0  0
    2.9918   -2.7549    0.0000 C   0  0  0  0  0  0  0  0  0  0  0  0
    1.5000   -2.5981    0.0000 N   0  0  0  0  0  0  0  0  0  0  0  0
    0.8899   -3.9684    0.0000 N   0  0  0  0  0  0  0  0  0  0  0  0
    5.4873   -1.7969    0.0000 C   0  0  0  0  0  0  0  0  0  0  0  0
    6.0974   -0.4266    0.0000 C   0  0  0  0  0  0  0  0  0  0  0  0
    4.9826    0.5771    0.0000 C   0  0  0  0  0  0  0  0  0  0  0  0
    3.6836   -0.1729    0.0000 O   0  0  0  0  0  0  0  0  0  0  0  0
    3.9955   -1.6402    0.0000 C   0  0  0  0  0  0  0  0  0  0  0  0
    5.1394    2.0689    0.0000 F   0  0  0  0  0  0  0  0  0  0  0  0
    7.7373   -3.0960    0.0000 O   0  0  0  0  0  0  0  0  0  0  0  0
    6.2373   -3.0960    0.0000 C   0  0  0  0  0  0  0  0  0  0  0  0
    5.4873   -4.3950    0.0000 O   0  0  0  0  0  0  0  0  0  0  0  0
    3.3396   -6.6207    0.0000 C   0  0  0  0  0  0  0  0  0  0  0  0
    1.8478   -6.4639    0.0000 C   0  0  0  0  0  0  0  0  0  0  0  0
    0.3560   -6.3071    0.0000 C   0  0  0  0  0  0  0  0  0  0  0  0
    1.6910   -7.9557    0.0000 S   0  0  0  0  0  0  0  0  0  0  0  0
    1.5342   -9.4474    0.0000 C   0  0  0  0  0  0  0  0  0  0  0  0
    0.1992   -7.7989    0.0000 O   0  0  0  0  0  0  0  0  0  0  0  0
    3.1828   -8.1124    0.0000 O   0  0  0  0  0  0  0  0  0  0  0  0
  1  2  1  0
  2  3  1  0
  3  4  1  0
  4  5  1  0
  5  6  1  0
  6  1  1  0
  7  8  1  0
  8  9  2  0
  9 10  1  0
 10 11  1  0
 11  7  2  0
 12 13  1  0
 13 14  2  0
 14 15  1  0
 15 16  1  0
 16 12  2  0
 18 19  2  0
 19 20  1  0
 21 22  1  0
 22 23  1  0
 22 24  1  0
 24 25  1  0
 24 26  2  0
 24 27  2  0
  1 10  1  0
  9 16  1  0
 14 17  1  0
 12 19  1  0
  7 22  1  0
M  END

