
     RDKit          2D

 32 34  0  0  0  0  0  0  0  0999 V2000
   -1.2887   16.7592    0.0000 C   0  0  0  0  0  0  0  0  0  0  0  0
   -1.7522   15.3326    0.0000 C   0  0  0  0  0  0  0  0  0  0  0  0
   -0.7485   14.2179    0.0000 C   0  0  0  0  0  0  0  0  0  0  0  0
   -1.2120   12.7913    0.0000 N   0  0  0  0  0  0  0  0  0  0  0  0
    0.3318    9.1353    0.0000 C   0  0  0  0  0  0  0  0  0  0  0  0
   -0.6718   10.2500    0.0000 N   0  0  0  0  0  0  0  0  0  0  0  0
   -0.2083   11.6766    0.0000 C   0  0  0  0  0  0  0  0  0  0  0  0
    0.7500    6.4952    0.0000 C   0  0  0  0  0  0  0  0  0  0  0  0
   -0.1317    5.2817    0.0000 N   0  0  0  0  0  0  0  0  0  0  0  0
   -1.5583    5.7452    0.0000 C   0  0  0  0  0  0  0  0  0  0  0  0
   -1.5583    7.2452    0.0000 C   0  0  0  0  0  0  0  0  0  0  0  0
   -0.1317    7.7087    0.0000 N   0  0  0  0  0  0  0  0  0  0  0  0
   -2.7718    4.8635    0.0000 N   0  0  0  0  0  0  0  0  0  0  0  0
   -2.7718    3.3635    0.0000 C   0  0  0  0  0  0  0  0  0  0  0  0
   -4.1984    2.9000    0.0000 C   0  0  0  0  0  0  0  0  0  0  0  0
   -5.0801    4.1135    0.0000 C   0  0  0  0  0  0  0  0  0  0  0  0
   -4.1984    5.3270    0.0000 N   0  0  0  0  0  0  0  0  0  0  0  0
    3.0000    7.7942    0.0000 C   0  0  0  0  0  0  0  0  0  0  0  0
    2.2500    6.4952    0.0000 N   0  0  0  0  0  0  0  0  0  0  0  0
    3.0000    5.1962    0.0000 C   0  0  0  0  0  0  0  0  0  0  0  0
    2.2500    3.8971    0.0000 C   0  0  0  0  0  0  0  0  0  0  0  0
    1.5000    2.5981    0.0000 C   0  0  0  0  0  0  0  0  0  0  0  0
    1.5000    0.0000    0.0000 C   0  0  0  0  0  0  0  0  0  0  0  0
    0.7500   -1.2990    0.0000 C   0  0  0  0  0  0  0  0  0  0  0  0
   -0.7500   -1.2990    0.0000 N   0  0  0  0  0  0  0  0  0  0  0  0
   -1.5000    0.0000    0.0000 C   0  0  0  0  0  0  0  0  0  0  0  0
   -0.7500    1.2990    0.0000 N   0  0  0  0  0  0  0  0  0  0  0  0
    0.7500    1.2990    0.0000 C   0  0  0  0  0  0  0  0  0  0  0  0
    1.5000   -2.5981    0.0000 F   0  0  0  0  0  0  0  0  0  0  0  0
    4.5000   -2.5981    0.0000 N   0  0  0  0  0  0  0  0  0  0  0  0
    3.7500   -1.2990    0.0000 C   0  0  0  0  0  0  0  0  0  0  0  0
    3.0000    0.0000    0.0000 C   0  0  0  0  0  0  0  0  0  0  0  0
  1  2  1  0
  2  3  1  0
  3  4  1  0
  5  6  1  0
  6  7  1  0
  8  9  2  0
  9 10  1  0
 10 11  2  0
 11 12  1  0
 12  8  1  0
 13 14  1  0
 14 15  2  0
 15 16  1  0
 16 17  2  0
 17 13  1  0
 18 19  1  0
 19 20  1  0
 20 21  1  0
 21 22  3  0
 23 24  2  0
 24 25  1  0
 25 26  2  0
 26 27  1  0
 27 28  2  0
 28 23  1  0
 30 31  3  0
 31 32  1  0
  4  7  1  0
  5 12  1  0
 10 13  1  0
  8 19  1  0
 22 28  1  0
 24 29  1  0
 23 32  1  0
M  END

