
     RDKit          2D

 32 36  0  0  0  0  0  0  0  0999 V2000
   -0.0000   -3.6073    0.0000 C   0  0  0  0  0  0  0  0  0  0  0  0
    1.2135   -2.7256    0.0000 N   0  0  0  0  0  0  0  0  0  0  0  0
    0.7500   -1.2990    0.0000 C   0  0  0  0  0  0  0  0  0  0  0  0
    1.5000    0.0000    0.0000 C   0  0  0  0  0  0  0  0  0  0  0  0
    0.7500    1.2990    0.0000 C   0  0  0  0  0  0  0  0  0  0  0  0
   -0.7500    1.2990    0.0000 C   0  0  0  0  0  0  0  0  0  0  0  0
   -1.5000    0.0000    0.0000 N   0  0  0  0  0  0  0  0  0  0  0  0
   -0.7500   -1.2990    0.0000 C   0  0  0  0  0  0  0  0  0  0  0  0
   -1.2135   -2.7256    0.0000 N   0  0  0  0  0  0  0  0  0  0  0  0
   -0.0000   -8.1073    0.0000 C   0  0  0  0  0  0  0  0  0  0  0  0
    1.2990   -7.3573    0.0000 C   0  0  0  0  0  0  0  0  0  0  0  0
    1.2990   -5.8573    0.0000 C   0  0  0  0  0  0  0  0  0  0  0  0
   -0.0000   -5.1073    0.0000 N   0  0  0  0  0  0  0  0  0  0  0  0
   -1.2990   -5.8573    0.0000 C   0  0  0  0  0  0  0  0  0  0  0  0
   -1.2990   -7.3573    0.0000 C   0  0  0  0  0  0  0  0  0  0  0  0
   -1.0261  -10.9264    0.0000 O   0  0  0  0  0  0  0  0  0  0  0  0
    0.4512  -10.6659    0.0000 C   0  0  0  0  0  0  0  0  0  0  0  0
    1.4153  -11.8150    0.0000 C   0  0  0  0  0  0  0  0  0  0  0  0
    2.3795  -12.9640    0.0000 C   0  0  0  0  0  0  0  0  0  0  0  0
    0.9642   -9.2564    0.0000 N   0  0  0  0  0  0  0  0  0  0  0  0
    4.8448   -9.3337    0.0000 C   0  0  0  0  0  0  0  0  0  0  0  0
    4.5844   -7.8565    0.0000 C   0  0  0  0  0  0  0  0  0  0  0  0
    3.0989   -7.6477    0.0000 N   0  0  0  0  0  0  0  0  0  0  0  0
    2.4414   -8.9959    0.0000 C   0  0  0  0  0  0  0  0  0  0  0  0
    3.5204  -10.0379    0.0000 C   0  0  0  0  0  0  0  0  0  0  0  0
    6.1930   -9.9912    0.0000 Cl  0  0  0  0  0  0  0  0  0  0  0  0
    3.3437  -14.1131    0.0000 N   0  0  0  0  0  0  0  0  0  0  0  0
    4.8400  -14.0085    0.0000 C   0  0  0  0  0  0  0  0  0  0  0  0
    5.4020  -15.3992    0.0000 C   0  0  0  0  0  0  0  0  0  0  0  0
    4.2529  -16.3634    0.0000 C   0  0  0  0  0  0  0  0  0  0  0  0
    2.9808  -15.5685    0.0000 C   0  0  0  0  0  0  0  0  0  0  0  0
   -0.9642   -9.2564    0.0000 F   0  0  0  0  0  0  0  0  0  0  0  0
  1  2  2  0
  2  3  1  0
  3  4  2  0
  4  5  1  0
  5  6  2  0
  6  7  1  0
  7  8  1  0
  8  9  2  0
  9  1  1  0
  8  3  1  0
 10 11  1  0
 11 12  1  0
 12 13  1  0
 13 14  1  0
 14 15  1  0
 15 10  1  0
 16 17  2  0
 17 18  1  0
 18 19  3  0
 17 20  1  0
 21 22  2  0
 22 23  1  0
 23 24  1  0
 24 25  2  0
 25 21  1  0
 27 28  1  0
 28 29  2  0
 29 30  1  0
 30 31  2  0
 31 27  1  0
  1 13  1  0
 10 20  1  0
 20 24  1  0
 21 26  1  0
 19 27  1  0
 10 32  1  0
M  END

