
     RDKit          2D

 31 34  0  0  0  0  0  0  0  0999 V2000
   -1.2990   -1.8107    0.0000 N   0  0  0  0  0  0  0  0  0  0  0  0
   -1.2990   -3.3107    0.0000 C   0  0  0  0  0  0  0  0  0  0  0  0
   -0.0000   -4.0607    0.0000 C   0  0  0  0  0  0  0  0  0  0  0  0
    1.2990   -3.3107    0.0000 O   0  0  0  0  0  0  0  0  0  0  0  0
    1.2990   -1.8107    0.0000 C   0  0  0  0  0  0  0  0  0  0  0  0
   -0.0000   -1.0607    0.0000 C   0  0  0  0  0  0  0  0  0  0  0  0
    1.0607    0.0000    0.0000 C   0  0  0  0  0  0  0  0  0  0  0  0
    0.0000    1.0607    0.0000 C   0  0  0  0  0  0  0  0  0  0  0  0
   -1.0607    0.0000    0.0000 C   0  0  0  0  0  0  0  0  0  0  0  0
   -3.8971    1.1893    0.0000 C   0  0  0  0  0  0  0  0  0  0  0  0
   -5.1962    0.4393    0.0000 N   0  0  0  0  0  0  0  0  0  0  0  0
   -5.1962   -1.0607    0.0000 C   0  0  0  0  0  0  0  0  0  0  0  0
   -3.8971   -1.8107    0.0000 N   0  0  0  0  0  0  0  0  0  0  0  0
   -2.5981   -1.0607    0.0000 C   0  0  0  0  0  0  0  0  0  0  0  0
   -2.5981    0.4393    0.0000 N   0  0  0  0  0  0  0  0  0  0  0  0
  -11.6913   -1.8107    0.0000 C   0  0  0  0  0  0  0  0  0  0  0  0
  -10.3923   -1.0607    0.0000 C   0  0  0  0  0  0  0  0  0  0  0  0
   -9.0933   -1.8107    0.0000 O   0  0  0  0  0  0  0  0  0  0  0  0
   -7.7942   -1.0607    0.0000 C   0  0  0  0  0  0  0  0  0  0  0  0
   -6.4952   -1.8107    0.0000 C   0  0  0  0  0  0  0  0  0  0  0  0
   -3.8971    5.6893    0.0000 C   0  0  0  0  0  0  0  0  0  0  0  0
   -2.5981    4.9393    0.0000 C   0  0  0  0  0  0  0  0  0  0  0  0
   -2.5981    3.4393    0.0000 C   0  0  0  0  0  0  0  0  0  0  0  0
   -3.8971    2.6893    0.0000 C   0  0  0  0  0  0  0  0  0  0  0  0
   -5.1962    3.4393    0.0000 C   0  0  0  0  0  0  0  0  0  0  0  0
   -5.1962    4.9393    0.0000 N   0  0  0  0  0  0  0  0  0  0  0  0
    1.2990    2.6893    0.0000 N   0  0  0  0  0  0  0  0  0  0  0  0
   -0.0000    3.4393    0.0000 C   0  0  0  0  0  0  0  0  0  0  0  0
   -1.2990    2.6893    0.0000 C   0  0  0  0  0  0  0  0  0  0  0  0
   -1.2990    1.1893    0.0000 O   0  0  0  0  0  0  0  0  0  0  0  0
   -3.8971    7.1893    0.0000 N   0  0  0  0  0  0  0  0  0  0  0  0
  1  2  1  0
  2  3  1  0
  3  4  1  0
  4  5  1  0
  5  6  1  0
  6  7  1  0
  7  8  1  0
  8  9  1  0
  6  1  1  0
  9  6  1  0
 10 11  2  0
 11 12  1  0
 12 13  2  0
 13 14  1  0
 14 15  2  0
 15 10  1  0
 16 17  1  0
 17 18  1  0
 18 19  1  0
 19 20  1  0
 21 22  2  0
 22 23  1  0
 23 24  2  0
 24 25  1  0
 25 26  2  0
 26 21  1  0
 27 28  1  0
 28 29  1  0
 29 30  1  6
  1 14  1  0
 12 20  1  0
 10 24  1  0
 23 29  1  0
 21 31  1  0
M  END

