
     RDKit          2D

 38 42  0  0  0  0  0  0  0  0999 V2000
    1.5000    2.5981    0.0000 C   0  0  0  0  0  0  0  0  0  0  0  0
    3.0000    2.5981    0.0000 F   0  0  0  0  0  0  0  0  0  0  0  0
    1.5000    0.0000    0.0000 C   0  0  0  0  0  0  0  0  0  0  0  0
    0.7500   -1.2990    0.0000 N   0  0  0  0  0  0  0  0  0  0  0  0
   -0.7500   -1.2990    0.0000 C   0  0  0  0  0  0  0  0  0  0  0  0
   -1.5000    0.0000    0.0000 N   0  0  0  0  0  0  0  0  0  0  0  0
   -0.7500    1.2990    0.0000 C   0  0  0  0  0  0  0  0  0  0  0  0
    0.7500    1.2990    0.0000 C   0  0  0  0  0  0  0  0  0  0  0  0
   -3.0000    5.1962    0.0000 N   0  0  0  0  0  0  0  0  0  0  0  0
   -3.7500    3.8971    0.0000 C   0  0  0  0  0  0  0  0  0  0  0  0
   -3.0000    2.5981    0.0000 C   0  0  0  0  0  0  0  0  0  0  0  0
   -1.5000    2.5981    0.0000 C   0  0  0  0  0  0  0  0  0  0  0  0
   -0.7500    3.8971    0.0000 C   0  0  0  0  0  0  0  0  0  0  0  0
   -1.5000    5.1962    0.0000 C   0  0  0  0  0  0  0  0  0  0  0  0
   -5.2418    6.6520    0.0000 C   0  0  0  0  0  0  0  0  0  0  0  0
   -5.5537    8.1192    0.0000 N   0  0  0  0  0  0  0  0  0  0  0  0
   -4.2546    8.8692    0.0000 C   0  0  0  0  0  0  0  0  0  0  0  0
   -3.1399    7.8655    0.0000 C   0  0  0  0  0  0  0  0  0  0  0  0
   -3.7500    6.4952    0.0000 N   0  0  0  0  0  0  0  0  0  0  0  0
   -2.7275   10.9711    0.0000 C   0  0  0  0  0  0  0  0  0  0  0  0
   -4.0978   10.3610    0.0000 C   0  0  0  0  0  0  0  0  0  0  0  0
   -2.5707   12.4629    0.0000 N   0  0  0  0  0  0  0  0  0  0  0  0
   -3.6854   13.4666    0.0000 C   0  0  0  0  0  0  0  0  0  0  0  0
   -3.0753   14.8369    0.0000 C   0  0  0  0  0  0  0  0  0  0  0  0
   -1.5835   14.6801    0.0000 C   0  0  0  0  0  0  0  0  0  0  0  0
   -1.2717   13.2129    0.0000 C   0  0  0  0  0  0  0  0  0  0  0  0
   -6.7856    2.9960    0.0000 C   0  0  0  0  0  0  0  0  0  0  0  0
   -8.2529    3.3078    0.0000 C   0  0  0  0  0  0  0  0  0  0  0  0
   -8.7164    4.7344    0.0000 C   0  0  0  0  0  0  0  0  0  0  0  0
   -7.7127    5.8491    0.0000 C   0  0  0  0  0  0  0  0  0  0  0  0
   -6.2455    5.5373    0.0000 C   0  0  0  0  0  0  0  0  0  0  0  0
   -5.7820    4.1107    0.0000 C   0  0  0  0  0  0  0  0  0  0  0  0
   -8.1762    7.2757    0.0000 F   0  0  0  0  0  0  0  0  0  0  0  0
   -6.3221    1.5694    0.0000 C   0  0  0  0  0  0  0  0  0  0  0  0
   -5.8586    0.1428    0.0000 F   0  0  0  0  0  0  0  0  0  0  0  0
   -7.7487    1.1059    0.0000 F   0  0  0  0  0  0  0  0  0  0  0  0
   -4.8955    2.0329    0.0000 F   0  0  0  0  0  0  0  0  0  0  0  0
    3.0000    0.0000    0.0000 N   0  0  0  0  0  0  0  0  0  0  0  0
  1  2  1  0
  3  4  2  0
  4  5  1  0
  5  6  2  0
  6  7  1  0
  7  8  2  0
  8  3  1  0
  9 10  1  0
 10 11  1  0
 11 12  1  0
 12 13  1  0
 13 14  1  0
 14  9  1  0
 15 16  2  0
 16 17  1  0
 17 18  2  0
 18 19  1  0
 19 15  1  0
 20 21  1  0
 22 23  1  0
 23 24  1  0
 24 25  1  0
 25 26  1  0
 26 22  1  0
 27 28  2  0
 28 29  1  0
 29 30  2  0
 30 31  1  0
 31 32  2  0
 32 27  1  0
 34 35  1  0
 34 36  1  0
 34 37  1  0
  1  8  1  0
  7 12  1  0
  9 19  1  0
 17 21  1  0
 20 22  1  0
 15 31  1  0
 30 33  1  0
 27 34  1  0
  3 38  1  0
M  END

