
     RDKit          2D

 38 42  0  0  0  0  0  0  0  0999 V2000
   -7.2578    4.5606    0.0000 N   0  0  0  0  0  0  0  0  0  0  0  0
   -7.7954    5.9610    0.0000 C   0  0  0  0  0  0  0  0  0  0  0  0
   -9.1957    5.4234    0.0000 C   0  0  0  0  0  0  0  0  0  0  0  0
   -8.6582    4.0231    0.0000 C   0  0  0  0  0  0  0  0  0  0  0  0
   -4.6740    4.8322    0.0000 C   0  0  0  0  0  0  0  0  0  0  0  0
   -5.8875    3.9505    0.0000 C   0  0  0  0  0  0  0  0  0  0  0  0
   -2.0046    4.9721    0.0000 C   0  0  0  0  0  0  0  0  0  0  0  0
   -0.8899    3.9684    0.0000 N   0  0  0  0  0  0  0  0  0  0  0  0
   -1.5000    2.5981    0.0000 C   0  0  0  0  0  0  0  0  0  0  0  0
   -2.9918    2.7549    0.0000 C   0  0  0  0  0  0  0  0  0  0  0  0
   -3.3037    4.2221    0.0000 N   0  0  0  0  0  0  0  0  0  0  0  0
    1.5000    0.0000    0.0000 C   0  0  0  0  0  0  0  0  0  0  0  0
    0.7500   -1.2990    0.0000 C   0  0  0  0  0  0  0  0  0  0  0  0
   -0.7500   -1.2990    0.0000 C   0  0  0  0  0  0  0  0  0  0  0  0
   -1.5000    0.0000    0.0000 C   0  0  0  0  0  0  0  0  0  0  0  0
   -0.7500    1.2990    0.0000 C   0  0  0  0  0  0  0  0  0  0  0  0
    0.7500    1.2990    0.0000 C   0  0  0  0  0  0  0  0  0  0  0  0
   -3.0000    0.0000    0.0000 F   0  0  0  0  0  0  0  0  0  0  0  0
    3.0000    0.0000    0.0000 F   0  0  0  0  0  0  0  0  0  0  0  0
   -0.3207    8.5658    0.0000 N   0  0  0  0  0  0  0  0  0  0  0  0
   -1.5342    9.4474    0.0000 C   0  0  0  0  0  0  0  0  0  0  0  0
   -2.9046    8.8373    0.0000 C   0  0  0  0  0  0  0  0  0  0  0  0
   -3.0613    7.3456    0.0000 C   0  0  0  0  0  0  0  0  0  0  0  0
   -1.8478    6.4639    0.0000 C   0  0  0  0  0  0  0  0  0  0  0  0
   -0.4775    7.0740    0.0000 C   0  0  0  0  0  0  0  0  0  0  0  0
    2.3486    8.4259    0.0000 N   0  0  0  0  0  0  0  0  0  0  0  0
    3.4634    9.4296    0.0000 N   0  0  0  0  0  0  0  0  0  0  0  0
    2.8533   10.7999    0.0000 C   0  0  0  0  0  0  0  0  0  0  0  0
    1.3615   10.6431    0.0000 N   0  0  0  0  0  0  0  0  0  0  0  0
    1.0496    9.1759    0.0000 C   0  0  0  0  0  0  0  0  0  0  0  0
    3.6033   12.0989    0.0000 N   0  0  0  0  0  0  0  0  0  0  0  0
    7.0868    0.6284    0.0000 C   0  0  0  0  0  0  0  0  0  0  0  0
    6.9300    2.1202    0.0000 C   0  0  0  0  0  0  0  0  0  0  0  0
    5.5597    2.7303    0.0000 C   0  0  0  0  0  0  0  0  0  0  0  0
    5.4029    4.2221    0.0000 C   0  0  0  0  0  0  0  0  0  0  0  0
    4.0326    4.8322    0.0000 C   0  0  0  0  0  0  0  0  0  0  0  0
    3.8758    6.3240    0.0000 C   0  0  0  0  0  0  0  0  0  0  0  0
    2.5054    6.9341    0.0000 O   0  0  0  0  0  0  0  0  0  0  0  0
  1  2  1  0
  2  3  1  0
  3  4  1  0
  4  1  1  0
  5  6  1  0
  7  8  2  0
  8  9  1  0
  9 10  2  0
 10 11  1  0
 11  7  1  0
 12 13  2  0
 13 14  1  0
 14 15  2  0
 15 16  1  0
 16 17  2  0
 17 12  1  0
 20 21  1  0
 21 22  1  0
 22 23  1  0
 23 24  1  0
 24 25  1  0
 25 20  1  0
 26 27  1  0
 27 28  2  0
 28 29  1  0
 29 30  2  0
 30 26  1  0
 32 33  1  0
 33 34  1  0
 34 35  1  0
 35 36  1  0
 36 37  1  0
 37 38  1  0
  1  6  1  0
  5 11  1  0
  9 16  1  0
 15 18  1  0
 12 19  1  0
  7 24  1  0
 20 30  1  0
 28 31  1  0
 26 38  1  0
M  ISO  1  19  18
M  END

