
     RDKit          2D

 29 31  0  0  0  0  0  0  0  0999 V2000
   -3.9955   -1.6402    0.0000 Cl  0  0  0  0  0  0  0  0  0  0  0  0
   -1.5000   -2.5981    0.0000 C   0  0  0  0  0  0  0  0  0  0  0  0
   -0.8899   -3.9684    0.0000 N   0  0  0  0  0  0  0  0  0  0  0  0
   -2.0046   -4.9721    0.0000 C   0  0  0  0  0  0  0  0  0  0  0  0
   -3.3037   -4.2221    0.0000 S   0  0  0  0  0  0  0  0  0  0  0  0
   -2.9918   -2.7549    0.0000 C   0  0  0  0  0  0  0  0  0  0  0  0
   -0.4775   -7.0740    0.0000 O   0  0  0  0  0  0  0  0  0  0  0  0
   -1.8478   -6.4639    0.0000 C   0  0  0  0  0  0  0  0  0  0  0  0
   -3.0613   -7.3456    0.0000 N   0  0  0  0  0  0  0  0  0  0  0  0
   -4.0193   -9.8410    0.0000 N   0  0  0  0  0  0  0  0  0  0  0  0
   -3.4092  -11.2113    0.0000 C   0  0  0  0  0  0  0  0  0  0  0  0
   -1.9174  -11.0546    0.0000 C   0  0  0  0  0  0  0  0  0  0  0  0
   -1.6055   -9.5873    0.0000 C   0  0  0  0  0  0  0  0  0  0  0  0
   -2.9046   -8.8373    0.0000 C   0  0  0  0  0  0  0  0  0  0  0  0
   -6.4902  -10.6439    0.0000 N   0  0  0  0  0  0  0  0  0  0  0  0
   -5.4865   -9.5292    0.0000 C   0  0  0  0  0  0  0  0  0  0  0  0
   -5.9500   -8.1026    0.0000 O   0  0  0  0  0  0  0  0  0  0  0  0
    1.5000    0.0000    0.0000 C   0  0  0  0  0  0  0  0  0  0  0  0
    0.7500   -1.2990    0.0000 C   0  0  0  0  0  0  0  0  0  0  0  0
   -0.7500   -1.2990    0.0000 C   0  0  0  0  0  0  0  0  0  0  0  0
   -1.5000    0.0000    0.0000 C   0  0  0  0  0  0  0  0  0  0  0  0
   -0.7500    1.2990    0.0000 C   0  0  0  0  0  0  0  0  0  0  0  0
    0.7500    1.2990    0.0000 N   0  0  0  0  0  0  0  0  0  0  0  0
    3.7500    1.2990    0.0000 O   0  0  0  0  0  0  0  0  0  0  0  0
    3.0000    0.0000    0.0000 C   0  0  0  0  0  0  0  0  0  0  0  0
    3.7500   -1.2990    0.0000 C   0  0  0  0  0  0  0  0  0  0  0  0
    4.5000   -2.5981    0.0000 F   0  0  0  0  0  0  0  0  0  0  0  0
    5.0490   -0.5490    0.0000 F   0  0  0  0  0  0  0  0  0  0  0  0
    2.4510   -2.0490    0.0000 F   0  0  0  0  0  0  0  0  0  0  0  0
  2  3  1  0
  3  4  2  0
  4  5  1  0
  5  6  1  0
  6  2  2  0
  7  8  2  0
  8  9  1  0
 10 11  1  0
 11 12  1  0
 12 13  1  0
 13 14  1  0
 14 10  1  0
 15 16  1  0
 16 17  2  0
 18 19  2  0
 19 20  1  0
 20 21  2  0
 21 22  1  0
 22 23  2  0
 23 18  1  0
 24 25  2  0
 25 26  1  0
 26 27  1  0
 26 28  1  0
 26 29  1  0
  1  6  1  0
  4  8  1  0
 14  9  1  1
 10 16  1  0
  2 20  1  0
 18 25  1  0
M  END

