
     RDKit          2D

 46 50  0  0  0  0  0  0  0  0999 V2000
   -0.7500    3.8971    0.0000 N   0  0  0  0  0  0  0  0  0  0  0  0
   -1.5000    2.5981    0.0000 C   0  0  0  0  0  0  0  0  0  0  0  0
   -3.0000    2.5981    0.0000 N   0  0  0  0  0  0  0  0  0  0  0  0
    0.7500   -1.2990    0.0000 C   0  0  0  0  0  0  0  0  0  0  0  0
    1.5000    0.0000    0.0000 C   0  0  0  0  0  0  0  0  0  0  0  0
    0.7500    1.2990    0.0000 C   0  0  0  0  0  0  0  0  0  0  0  0
   -0.7500    1.2990    0.0000 C   0  0  0  0  0  0  0  0  0  0  0  0
   -1.5000    0.0000    0.0000 C   0  0  0  0  0  0  0  0  0  0  0  0
   -0.7500   -1.2990    0.0000 C   0  0  0  0  0  0  0  0  0  0  0  0
    3.0000   -2.5981    0.0000 C   0  0  0  0  0  0  0  0  0  0  0  0
    3.7500   -3.8971    0.0000 N   0  0  0  0  0  0  0  0  0  0  0  0
    3.0000   -5.1962    0.0000 C   0  0  0  0  0  0  0  0  0  0  0  0
    1.5000   -5.1962    0.0000 N   0  0  0  0  0  0  0  0  0  0  0  0
    0.7500   -3.8971    0.0000 C   0  0  0  0  0  0  0  0  0  0  0  0
    1.5000   -2.5981    0.0000 C   0  0  0  0  0  0  0  0  0  0  0  0
   -7.5000   -7.7942    0.0000 C   0  0  0  0  0  0  0  0  0  0  0  0
   -6.0000   -7.7942    0.0000 C   0  0  0  0  0  0  0  0  0  0  0  0
   -5.2500   -6.4952    0.0000 C   0  0  0  0  0  0  0  0  0  0  0  0
   -3.7500   -6.4952    0.0000 C   0  0  0  0  0  0  0  0  0  0  0  0
   -3.0000   -5.1962    0.0000 C   0  0  0  0  0  0  0  0  0  0  0  0
   -1.5000   -5.1962    0.0000 C   0  0  0  0  0  0  0  0  0  0  0  0
   -0.7500   -3.8971    0.0000 C   0  0  0  0  0  0  0  0  0  0  0  0
   -7.6399  -10.4636    0.0000 C   0  0  0  0  0  0  0  0  0  0  0  0
   -8.7546  -11.4673    0.0000 N   0  0  0  0  0  0  0  0  0  0  0  0
  -10.0537  -10.7173    0.0000 C   0  0  0  0  0  0  0  0  0  0  0  0
   -9.7418   -9.2501    0.0000 C   0  0  0  0  0  0  0  0  0  0  0  0
   -8.2500   -9.0933    0.0000 N   0  0  0  0  0  0  0  0  0  0  0  0
  -12.6375  -10.4457    0.0000 C   0  0  0  0  0  0  0  0  0  0  0  0
  -11.4240  -11.3274    0.0000 O   0  0  0  0  0  0  0  0  0  0  0  0
  -14.0078  -11.0558    0.0000 N   0  0  0  0  0  0  0  0  0  0  0  0
  -14.3197  -12.5230    0.0000 C   0  0  0  0  0  0  0  0  0  0  0  0
  -15.8115  -12.6798    0.0000 C   0  0  0  0  0  0  0  0  0  0  0  0
  -16.4216  -11.3095    0.0000 C   0  0  0  0  0  0  0  0  0  0  0  0
  -15.3069  -10.3058    0.0000 C   0  0  0  0  0  0  0  0  0  0  0  0
   -3.7018   -9.9726    0.0000 C   0  0  0  0  0  0  0  0  0  0  0  0
   -3.2382  -11.3992    0.0000 N   0  0  0  0  0  0  0  0  0  0  0  0
   -4.2419  -12.5139    0.0000 C   0  0  0  0  0  0  0  0  0  0  0  0
   -5.7091  -12.2020    0.0000 C   0  0  0  0  0  0  0  0  0  0  0  0
   -6.1727  -10.7755    0.0000 C   0  0  0  0  0  0  0  0  0  0  0  0
   -5.1690   -9.6607    0.0000 N   0  0  0  0  0  0  0  0  0  0  0  0
   -6.7128  -13.3168    0.0000 C   0  0  0  0  0  0  0  0  0  0  0  0
   -7.7165  -14.4315    0.0000 F   0  0  0  0  0  0  0  0  0  0  0  0
   -5.5981  -14.3205    0.0000 F   0  0  0  0  0  0  0  0  0  0  0  0
   -7.8276  -12.3131    0.0000 F   0  0  0  0  0  0  0  0  0  0  0  0
   -2.6981   -8.8579    0.0000 F   0  0  0  0  0  0  0  0  0  0  0  0
    3.7500   -1.2990    0.0000 I   0  0  0  0  0  0  0  0  0  0  0  0
  1  2  1  0
  2  3  2  0
  4  5  2  0
  5  6  1  0
  6  7  2  0
  7  8  1  0
  8  9  2  0
  9  4  1  0
 10 11  2  0
 11 12  1  0
 12 13  2  0
 13 14  1  0
 14 15  2  0
 15 10  1  0
 16 17  1  0
 17 18  1  0
 18 19  1  0
 19 20  1  0
 20 21  1  0
 21 22  1  0
 23 24  2  0
 24 25  1  0
 25 26  2  0
 26 27  1  0
 27 23  1  0
 28 29  1  0
 30 31  1  0
 31 32  1  0
 32 33  1  0
 33 34  1  0
 34 30  1  0
 35 36  2  0
 36 37  1  0
 37 38  2  0
 38 39  1  0
 39 40  2  0
 40 35  1  0
 41 42  1  0
 41 43  1  0
 41 44  1  0
  2  7  1  0
  4 15  1  0
 14 22  1  0
 16 27  1  0
 25 29  1  0
 28 30  1  0
 23 39  1  0
 38 41  1  0
 35 45  1  0
 10 46  1  0
M  END

