
     RDKit          2D

 28 31  0  0  0  0  0  0  0  0999 V2000
    2.0472   -4.4874    0.0000 C   0  0  0  0  0  0  0  0  0  0  0  0
    3.3463   -3.7374    0.0000 N   0  0  0  0  0  0  0  0  0  0  0  0
    3.3463   -2.2374    0.0000 C   0  0  0  0  0  0  0  0  0  0  0  0
    4.6453   -1.4874    0.0000 C   0  0  0  0  0  0  0  0  0  0  0  0
    4.6453    0.0126    0.0000 N   0  0  0  0  0  0  0  0  0  0  0  0
    3.3463    0.7626    0.0000 C   0  0  0  0  0  0  0  0  0  0  0  0
    2.0472    0.0126    0.0000 O   0  0  0  0  0  0  0  0  0  0  0  0
    3.3463    2.2626    0.0000 C   0  0  0  0  0  0  0  0  0  0  0  0
    2.1328    3.1443    0.0000 C   0  0  0  0  0  0  0  0  0  0  0  0
    0.7062    2.6807    0.0000 C   0  0  0  0  0  0  0  0  0  0  0  0
    0.3943    1.2135    0.0000 C   0  0  0  0  0  0  0  0  0  0  0  0
   -1.0323    0.7500    0.0000 C   0  0  0  0  0  0  0  0  0  0  0  0
   -2.1470    1.7537    0.0000 N   0  0  0  0  0  0  0  0  0  0  0  0
   -1.8351    3.2209    0.0000 C   0  0  0  0  0  0  0  0  0  0  0  0
   -0.4086    3.6844    0.0000 C   0  0  0  0  0  0  0  0  0  0  0  0
   -0.4086    5.1844    0.0000 C   0  0  0  0  0  0  0  0  0  0  0  0
   -1.8351    5.6480    0.0000 C   0  0  0  0  0  0  0  0  0  0  0  0
   -2.7168    4.4344    0.0000 N   0  0  0  0  0  0  0  0  0  0  0  0
    2.5963    4.5709    0.0000 C   0  0  0  0  0  0  0  0  0  0  0  0
    4.0963    4.5709    0.0000 C   0  0  0  0  0  0  0  0  0  0  0  0
    4.9780    5.7844    0.0000 Br  0  0  0  0  0  0  0  0  0  0  0  0
    4.5598    3.1443    0.0000 S   0  0  0  0  0  0  0  0  0  0  0  0
    5.9444   -2.2374    0.0000 C   0  0  0  0  0  0  0  0  0  0  0  0
    5.9444   -3.7374    0.0000 C   0  0  0  0  0  0  0  0  0  0  0  0
    7.2434   -4.4874    0.0000 C   0  0  0  0  0  0  0  0  0  0  0  0
    8.5424   -3.7374    0.0000 C   0  0  0  0  0  0  0  0  0  0  0  0
    8.5424   -2.2374    0.0000 C   0  0  0  0  0  0  0  0  0  0  0  0
    7.2434   -1.4874    0.0000 C   0  0  0  0  0  0  0  0  0  0  0  0
  1  2  1  0
  2  3  1  0
  3  4  1  0
  4  5  1  0
  5  6  1  0
  6  7  2  0
  6  8  1  0
  8  9  2  0
  9 10  1  0
 10 11  2  0
 11 12  1  0
 12 13  2  0
 13 14  1  0
 14 15  2  0
 15 16  1  0
 16 17  2  0
 17 18  1  0
  9 19  1  0
 19 20  2  0
 20 21  1  0
 20 22  1  0
  4 23  1  0
 23 24  2  0
 24 25  1  0
 25 26  2  0
 26 27  1  0
 27 28  2  0
 22  8  1  0
 28 23  1  0
 15 10  1  0
 18 14  1  0
M  END

