
     RDKit          2D

 28 30  0  0  0  0  0  0  0  0999 V2000
    2.7760    1.5000    0.0000 C   0  0  0  0  0  0  0  0  0  0  0  0
    2.7760    0.0000    0.0000 C   0  0  0  0  0  0  0  0  0  0  0  0
    2.7760   -1.5000    0.0000 C   0  0  0  0  0  0  0  0  0  0  0  0
    4.2760    0.0000    0.0000 N   0  0  0  0  0  0  0  0  0  0  0  0
    1.2760    0.0000    0.0000 C   0  0  0  0  0  0  0  0  0  0  0  0
    0.3943    1.2135    0.0000 N   0  0  0  0  0  0  0  0  0  0  0  0
   -1.0323    0.7500    0.0000 C   0  0  0  0  0  0  0  0  0  0  0  0
   -2.2458    1.6317    0.0000 C   0  0  0  0  0  0  0  0  0  0  0  0
   -3.6724    1.1682    0.0000 C   0  0  0  0  0  0  0  0  0  0  0  0
   -4.1359   -0.2584    0.0000 C   0  0  0  0  0  0  0  0  0  0  0  0
   -4.5994   -1.6850    0.0000 N   0  0  0  0  0  0  0  0  0  0  0  0
   -4.5541    2.3817    0.0000 N   0  0  0  0  0  0  0  0  0  0  0  0
   -3.6724    3.5952    0.0000 C   0  0  0  0  0  0  0  0  0  0  0  0
   -4.1359    5.0218    0.0000 C   0  0  0  0  0  0  0  0  0  0  0  0
   -5.6031    5.3337    0.0000 O   0  0  0  0  0  0  0  0  0  0  0  0
   -3.1322    6.1365    0.0000 N   0  0  0  0  0  0  0  0  0  0  0  0
   -3.5958    7.5631    0.0000 C   0  0  0  0  0  0  0  0  0  0  0  0
   -2.9148    8.8996    0.0000 C   0  0  0  0  0  0  0  0  0  0  0  0
   -4.2513    9.5806    0.0000 C   0  0  0  0  0  0  0  0  0  0  0  0
   -3.5703   10.9171    0.0000 F   0  0  0  0  0  0  0  0  0  0  0  0
   -5.5878   10.2616    0.0000 C   0  0  0  0  0  0  0  0  0  0  0  0
   -5.6663   11.7595    0.0000 C   0  0  0  0  0  0  0  0  0  0  0  0
   -7.0028   12.4405    0.0000 N   0  0  0  0  0  0  0  0  0  0  0  0
   -4.4083   12.5765    0.0000 O   0  0  0  0  0  0  0  0  0  0  0  0
   -4.9323    8.2441    0.0000 C   0  0  0  0  0  0  0  0  0  0  0  0
   -2.2458    3.1317    0.0000 S   0  0  0  0  0  0  0  0  0  0  0  0
   -1.0323   -0.7500    0.0000 C   0  0  0  0  0  0  0  0  0  0  0  0
    0.3943   -1.2135    0.0000 S   0  0  0  0  0  0  0  0  0  0  0  0
  1  2  1  0
  2  3  1  0
  2  4  1  0
  2  5  1  0
  5  6  2  0
  6  7  1  0
  7  8  1  0
  8  9  2  0
  9 10  1  0
 10 11  3  0
  9 12  1  0
 12 13  2  0
 13 14  1  0
 14 15  2  0
 14 16  1  0
 17 16  1  6
 17 18  1  0
 18 19  1  0
 19 20  1  1
 19 21  1  0
 21 22  1  0
 22 23  1  0
 22 24  2  0
 19 25  1  0
 13 26  1  0
  7 27  2  0
 27 28  1  0
 28  5  1  0
 26  8  1  0
 25 17  1  0
M  END

