
     RDKit          2D

 44 48  0  0  0  0  0  0  0  0999 V2000
    0.7500    3.8971    0.0000 O   0  0  0  0  0  0  0  0  0  0  0  0
   -0.7500    3.8971    0.0000 C   0  0  0  0  0  0  0  0  0  0  0  0
   -1.5000    2.5981    0.0000 N   0  0  0  0  0  0  0  0  0  0  0  0
   -1.5000    5.1962    0.0000 N   0  0  0  0  0  0  0  0  0  0  0  0
   -0.7500    6.4952    0.0000 C   0  0  0  0  0  0  0  0  0  0  0  0
   -1.5000    7.7942    0.0000 C   0  0  0  0  0  0  0  0  0  0  0  0
   -0.7500    9.0933    0.0000 O   0  0  0  0  0  0  0  0  0  0  0  0
    0.7500   -1.2990    0.0000 C   0  0  0  0  0  0  0  0  0  0  0  0
    1.5000    0.0000    0.0000 C   0  0  0  0  0  0  0  0  0  0  0  0
    0.7500    1.2990    0.0000 C   0  0  0  0  0  0  0  0  0  0  0  0
   -0.7500    1.2990    0.0000 C   0  0  0  0  0  0  0  0  0  0  0  0
   -1.5000    0.0000    0.0000 C   0  0  0  0  0  0  0  0  0  0  0  0
   -0.7500   -1.2990    0.0000 C   0  0  0  0  0  0  0  0  0  0  0  0
    1.5000   -5.1962    0.0000 C   0  0  0  0  0  0  0  0  0  0  0  0
    3.0000   -5.1962    0.0000 C   0  0  0  0  0  0  0  0  0  0  0  0
    3.7500   -3.8971    0.0000 C   0  0  0  0  0  0  0  0  0  0  0  0
    3.0000   -2.5981    0.0000 N   0  0  0  0  0  0  0  0  0  0  0  0
    1.5000   -2.5981    0.0000 C   0  0  0  0  0  0  0  0  0  0  0  0
    0.7500   -3.8971    0.0000 N   0  0  0  0  0  0  0  0  0  0  0  0
    7.3713   -3.8971    0.0000 C   0  0  0  0  0  0  0  0  0  0  0  0
    6.3107   -2.8365    0.0000 C   0  0  0  0  0  0  0  0  0  0  0  0
    5.2500   -3.8971    0.0000 C   0  0  0  0  0  0  0  0  0  0  0  0
    6.3107   -4.9578    0.0000 C   0  0  0  0  0  0  0  0  0  0  0  0
    9.0004  -12.8746    0.0000 C   0  0  0  0  0  0  0  0  0  0  0  0
    9.3886  -11.4258    0.0000 O   0  0  0  0  0  0  0  0  0  0  0  0
    8.3280  -10.3651    0.0000 C   0  0  0  0  0  0  0  0  0  0  0  0
    8.7162   -8.9162    0.0000 C   0  0  0  0  0  0  0  0  0  0  0  0
    7.6555   -7.8556    0.0000 N   0  0  0  0  0  0  0  0  0  0  0  0
    6.2066   -8.2438    0.0000 C   0  0  0  0  0  0  0  0  0  0  0  0
    8.0438   -6.4067    0.0000 S   0  0  0  0  0  0  0  0  0  0  0  0
    9.4926   -6.7949    0.0000 O   0  0  0  0  0  0  0  0  0  0  0  0
    6.5949   -6.0184    0.0000 O   0  0  0  0  0  0  0  0  0  0  0  0
    8.4320   -4.9578    0.0000 N   0  0  0  0  0  0  0  0  0  0  0  0
    8.4320   -2.8365    0.0000 C   0  0  0  0  0  0  0  0  0  0  0  0
    8.8202   -1.3876    0.0000 C   0  0  0  0  0  0  0  0  0  0  0  0
    9.8809   -2.4482    0.0000 C   0  0  0  0  0  0  0  0  0  0  0  0
    1.5000   -7.7942    0.0000 C   0  0  0  0  0  0  0  0  0  0  0  0
    0.7500   -9.0933    0.0000 C   0  0  0  0  0  0  0  0  0  0  0  0
   -0.7500   -9.0933    0.0000 O   0  0  0  0  0  0  0  0  0  0  0  0
   -1.5000   -7.7942    0.0000 C   0  0  0  0  0  0  0  0  0  0  0  0
   -0.7500   -6.4952    0.0000 C   0  0  0  0  0  0  0  0  0  0  0  0
    0.7500   -6.4952    0.0000 N   0  0  0  0  0  0  0  0  0  0  0  0
    4.5000   -7.7942    0.0000 N   0  0  0  0  0  0  0  0  0  0  0  0
    3.0000   -7.7942    0.0000 C   0  0  0  0  0  0  0  0  0  0  0  0
  1  2  2  0
  2  3  1  0
  2  4  1  0
  4  5  1  0
  5  6  1  0
  6  7  1  0
  8  9  2  0
  9 10  1  0
 10 11  2  0
 11 12  1  0
 12 13  2  0
 13  8  1  0
 14 15  2  0
 15 16  1  0
 16 17  2  0
 17 18  1  0
 18 19  2  0
 19 14  1  0
 20 21  1  0
 21 22  1  0
 22 23  1  0
 23 20  1  0
 24 25  1  0
 25 26  1  0
 26 27  1  0
 27 28  1  0
 28 29  1  0
 28 30  1  0
 30 31  2  0
 30 32  2  0
 30 33  1  0
 34 35  1  0
 35 36  1  0
 36 34  1  0
 37 38  1  0
 38 39  1  0
 39 40  1  0
 40 41  1  0
 41 42  1  0
 42 37  1  0
 43 44  3  0
  3 11  1  0
  8 18  1  0
 22 16  1  1
 20 33  1  1
 20 34  1  0
 14 42  1  0
 37 44  1  1
M  END

