
     RDKit          2D

 36 39  0  0  0  0  0  0  0  0999 V2000
   -0.7500    3.8971    0.0000 F   0  0  0  0  0  0  0  0  0  0  0  0
   -1.5000    2.5981    0.0000 C   0  0  0  0  0  0  0  0  0  0  0  0
    1.5000    0.0000    0.0000 C   0  0  0  0  0  0  0  0  0  0  0  0
    0.7500   -1.2990    0.0000 C   0  0  0  0  0  0  0  0  0  0  0  0
   -0.7500   -1.2990    0.0000 C   0  0  0  0  0  0  0  0  0  0  0  0
   -1.5000    0.0000    0.0000 C   0  0  0  0  0  0  0  0  0  0  0  0
   -0.7500    1.2990    0.0000 C   0  0  0  0  0  0  0  0  0  0  0  0
    0.7500    1.2990    0.0000 C   0  0  0  0  0  0  0  0  0  0  0  0
    3.7500    3.8971    0.0000 N   0  0  0  0  0  0  0  0  0  0  0  0
    3.0000    5.1962    0.0000 C   0  0  0  0  0  0  0  0  0  0  0  0
    1.5000    5.1962    0.0000 C   0  0  0  0  0  0  0  0  0  0  0  0
    0.7500    3.8971    0.0000 C   0  0  0  0  0  0  0  0  0  0  0  0
    1.5000    2.5981    0.0000 C   0  0  0  0  0  0  0  0  0  0  0  0
    3.0000    2.5981    0.0000 C   0  0  0  0  0  0  0  0  0  0  0  0
    6.1317    5.1106    0.0000 C   0  0  0  0  0  0  0  0  0  0  0  0
    7.5583    4.6471    0.0000 N   0  0  0  0  0  0  0  0  0  0  0  0
    7.5583    3.1471    0.0000 C   0  0  0  0  0  0  0  0  0  0  0  0
    6.1317    2.6836    0.0000 C   0  0  0  0  0  0  0  0  0  0  0  0
    5.2500    3.8971    0.0000 N   0  0  0  0  0  0  0  0  0  0  0  0
    8.6150    0.7737    0.0000 C   0  0  0  0  0  0  0  0  0  0  0  0
    8.7718    2.2654    0.0000 C   0  0  0  0  0  0  0  0  0  0  0  0
   10.8853   -2.4815    0.0000 C   0  0  0  0  0  0  0  0  0  0  0  0
    9.6717   -1.5998    0.0000 C   0  0  0  0  0  0  0  0  0  0  0  0
    9.8285   -0.1080    0.0000 N   0  0  0  0  0  0  0  0  0  0  0  0
   11.1988    0.5021    0.0000 C   0  0  0  0  0  0  0  0  0  0  0  0
   12.4124   -0.3796    0.0000 C   0  0  0  0  0  0  0  0  0  0  0  0
    3.7374    8.2757    0.0000 C   0  0  0  0  0  0  0  0  0  0  0  0
    4.7411    9.3904    0.0000 C   0  0  0  0  0  0  0  0  0  0  0  0
    6.2083    9.0785    0.0000 C   0  0  0  0  0  0  0  0  0  0  0  0
    6.6718    7.6519    0.0000 C   0  0  0  0  0  0  0  0  0  0  0  0
    5.6682    6.5372    0.0000 C   0  0  0  0  0  0  0  0  0  0  0  0
    4.2009    6.8491    0.0000 C   0  0  0  0  0  0  0  0  0  0  0  0
    2.2702    8.5875    0.0000 F   0  0  0  0  0  0  0  0  0  0  0  0
    4.5000   -2.5981    0.0000 N   0  0  0  0  0  0  0  0  0  0  0  0
    3.7500   -1.2990    0.0000 C   0  0  0  0  0  0  0  0  0  0  0  0
    3.0000    0.0000    0.0000 C   0  0  0  0  0  0  0  0  0  0  0  0
  1  2  1  0
  3  4  2  0
  4  5  1  0
  5  6  2  0
  6  7  1  0
  7  8  2  0
  8  3  1  0
  9 10  1  0
 10 11  1  0
 11 12  1  0
 12 13  1  0
 13 14  1  0
 14  9  1  0
 15 16  2  0
 16 17  1  0
 17 18  2  0
 18 19  1  0
 19 15  1  0
 20 21  1  0
 22 23  1  0
 23 24  1  0
 24 25  1  0
 25 26  1  0
 27 28  2  0
 28 29  1  0
 29 30  2  0
 30 31  1  0
 31 32  2  0
 32 27  1  0
 34 35  3  0
 35 36  1  0
  2  7  1  0
 13  8  1  1
  9 19  1  0
 17 21  1  0
 20 24  1  0
 15 31  1  0
 27 33  1  0
  3 36  1  0
M  END

