
     RDKit          2D

 30 33  0  0  0  0  0  0  0  0999 V2000
   -0.3622   -8.5935    0.0000 Cl  0  0  0  0  0  0  0  0  0  0  0  0
   -3.7063   -5.5824    0.0000 C   0  0  0  0  0  0  0  0  0  0  0  0
   -4.0182   -7.0496    0.0000 C   0  0  0  0  0  0  0  0  0  0  0  0
   -2.9035   -8.0533    0.0000 C   0  0  0  0  0  0  0  0  0  0  0  0
   -1.4769   -7.5898    0.0000 C   0  0  0  0  0  0  0  0  0  0  0  0
   -1.1650   -6.1226    0.0000 C   0  0  0  0  0  0  0  0  0  0  0  0
   -2.2798   -5.1189    0.0000 C   0  0  0  0  0  0  0  0  0  0  0  0
   -6.5595   -6.5095    0.0000 N   0  0  0  0  0  0  0  0  0  0  0  0
   -6.2476   -5.0422    0.0000 C   0  0  0  0  0  0  0  0  0  0  0  0
   -7.3624   -4.0385    0.0000 O   0  0  0  0  0  0  0  0  0  0  0  0
   -4.8211   -4.5787    0.0000 C   0  0  0  0  0  0  0  0  0  0  0  0
   -4.5092   -3.1115    0.0000 N   0  0  0  0  0  0  0  0  0  0  0  0
   -5.6239   -2.1078    0.0000 C   0  0  0  0  0  0  0  0  0  0  0  0
   -7.0505   -2.5713    0.0000 O   0  0  0  0  0  0  0  0  0  0  0  0
   -6.4268    0.3631    0.0000 C   0  0  0  0  0  0  0  0  0  0  0  0
   -6.1149    1.8303    0.0000 C   0  0  0  0  0  0  0  0  0  0  0  0
   -4.6883    2.2939    0.0000 O   0  0  0  0  0  0  0  0  0  0  0  0
   -3.5736    1.2902    0.0000 C   0  0  0  0  0  0  0  0  0  0  0  0
   -3.8855   -0.1771    0.0000 C   0  0  0  0  0  0  0  0  0  0  0  0
   -5.3120   -0.6406    0.0000 N   0  0  0  0  0  0  0  0  0  0  0  0
   -2.1470    1.7537    0.0000 C   0  0  0  0  0  0  0  0  0  0  0  0
   -1.8351    3.2209    0.0000 N   0  0  0  0  0  0  0  0  0  0  0  0
   -0.4086    3.6844    0.0000 C   0  0  0  0  0  0  0  0  0  0  0  0
    0.7062    2.6807    0.0000 N   0  0  0  0  0  0  0  0  0  0  0  0
    0.3943    1.2135    0.0000 C   0  0  0  0  0  0  0  0  0  0  0  0
    1.2760    0.0000    0.0000 N   0  0  0  0  0  0  0  0  0  0  0  0
    0.3943   -1.2135    0.0000 C   0  0  0  0  0  0  0  0  0  0  0  0
   -1.0323   -0.7500    0.0000 C   0  0  0  0  0  0  0  0  0  0  0  0
   -1.0323    0.7500    0.0000 C   0  0  0  0  0  0  0  0  0  0  0  0
   -7.8533   -0.1004    0.0000 N   0  0  0  0  0  0  0  0  0  0  0  0
  2  3  2  0
  3  4  1  0
  4  5  2  0
  5  6  1  0
  6  7  2  0
  7  2  1  0
  8  9  1  0
  9 10  2  0
  9 11  1  0
 11 12  1  0
 12 13  1  0
 13 14  2  0
 15 16  1  0
 16 17  1  0
 17 18  1  0
 18 19  1  0
 19 20  1  0
 20 15  1  0
 21 22  2  0
 22 23  1  0
 23 24  2  0
 24 25  1  0
 25 26  1  0
 26 27  1  0
 27 28  2  0
 28 29  1  0
 29 21  1  0
 29 25  2  0
  1  5  1  0
  2 11  1  0
 13 20  1  0
 18 21  1  1
 15 30  1  6
M  END

