
     RDKit          2D

 30 33  0  0  0  0  0  0  0  0999 V2000
    4.8308    8.9221    0.0000 C   0  0  0  0  0  0  0  0  0  0  0  0
    4.6740    7.4303    0.0000 O   0  0  0  0  0  0  0  0  0  0  0  0
    2.9918    5.3529    0.0000 C   0  0  0  0  0  0  0  0  0  0  0  0
    1.5000    5.1962    0.0000 C   0  0  0  0  0  0  0  0  0  0  0  0
    0.8899    6.5665    0.0000 C   0  0  0  0  0  0  0  0  0  0  0  0
    2.0046    7.5702    0.0000 N   0  0  0  0  0  0  0  0  0  0  0  0
    3.3037    6.8202    0.0000 N   0  0  0  0  0  0  0  0  0  0  0  0
    3.0000    0.0000    0.0000 O   0  0  0  0  0  0  0  0  0  0  0  0
    1.5000    0.0000    0.0000 C   0  0  0  0  0  0  0  0  0  0  0  0
    0.7500   -1.2990    0.0000 C   0  0  0  0  0  0  0  0  0  0  0  0
   -0.7500   -1.2990    0.0000 C   0  0  0  0  0  0  0  0  0  0  0  0
   -1.5000    0.0000    0.0000 N   0  0  0  0  0  0  0  0  0  0  0  0
   -0.7500    1.2990    0.0000 C   0  0  0  0  0  0  0  0  0  0  0  0
   -1.5000    2.5981    0.0000 C   0  0  0  0  0  0  0  0  0  0  0  0
   -0.7500    3.8971    0.0000 C   0  0  0  0  0  0  0  0  0  0  0  0
    0.7500    3.8971    0.0000 C   0  0  0  0  0  0  0  0  0  0  0  0
    1.5000    2.5981    0.0000 C   0  0  0  0  0  0  0  0  0  0  0  0
    0.7500    1.2990    0.0000 N   0  0  0  0  0  0  0  0  0  0  0  0
    5.1508    6.0173    0.0000 O   0  0  0  0  0  0  0  0  0  0  0  0
    5.4627    4.5501    0.0000 S   0  0  0  0  0  0  0  0  0  0  0  0
    5.7746    3.0829    0.0000 O   0  0  0  0  0  0  0  0  0  0  0  0
    3.9955    4.2382    0.0000 N   0  0  0  0  0  0  0  0  0  0  0  0
    9.8644    5.4857    0.0000 C   0  0  0  0  0  0  0  0  0  0  0  0
    9.4008    4.0591    0.0000 C   0  0  0  0  0  0  0  0  0  0  0  0
    7.9336    3.7472    0.0000 C   0  0  0  0  0  0  0  0  0  0  0  0
    6.9299    4.8620    0.0000 C   0  0  0  0  0  0  0  0  0  0  0  0
    7.3934    6.2885    0.0000 C   0  0  0  0  0  0  0  0  0  0  0  0
    8.8607    6.6004    0.0000 C   0  0  0  0  0  0  0  0  0  0  0  0
   12.3353    4.6828    0.0000 C   0  0  0  0  0  0  0  0  0  0  0  0
   11.3316    5.7976    0.0000 O   0  0  0  0  0  0  0  0  0  0  0  0
  1  2  1  0
  3  4  2  0
  4  5  1  0
  5  6  2  0
  6  7  1  0
  7  3  1  0
  8  9  2  0
  9 10  1  0
 10 11  2  0
 11 12  1  0
 12 13  2  0
 13 14  1  0
 14 15  2  0
 15 16  1  0
 16 17  2  0
 17 18  1  0
 18  9  1  0
 18 13  1  0
 19 20  2  0
 20 21  2  0
 20 22  1  0
 23 24  2  0
 24 25  1  0
 25 26  2  0
 26 27  1  0
 27 28  2  0
 28 23  1  0
 29 30  1  0
  2  7  1  0
  4 16  1  0
  3 22  1  0
 20 26  1  0
 23 30  1  0
M  ISO  1  29  11
M  END

