
     RDKit          2D

 33 37  0  0  0  0  0  0  0  0999 V2000
   -2.1470    1.7537    0.0000 C   0  0  0  0  0  0  0  0  0  0  0  0
   -1.8351    3.2209    0.0000 C   0  0  0  0  0  0  0  0  0  0  0  0
   -0.4086    3.6844    0.0000 C   0  0  0  0  0  0  0  0  0  0  0  0
    0.7062    2.6807    0.0000 C   0  0  0  0  0  0  0  0  0  0  0  0
    0.3943    1.2135    0.0000 C   0  0  0  0  0  0  0  0  0  0  0  0
    1.2760    0.0000    0.0000 N   0  0  0  0  0  0  0  0  0  0  0  0
    0.3943   -1.2135    0.0000 C   0  0  0  0  0  0  0  0  0  0  0  0
   -1.0323   -0.7500    0.0000 C   0  0  0  0  0  0  0  0  0  0  0  0
   -1.0323    0.7500    0.0000 C   0  0  0  0  0  0  0  0  0  0  0  0
   -6.1149    1.8303    0.0000 C   0  0  0  0  0  0  0  0  0  0  0  0
   -6.4268    0.3631    0.0000 N   0  0  0  0  0  0  0  0  0  0  0  0
   -5.3120   -0.6406    0.0000 C   0  0  0  0  0  0  0  0  0  0  0  0
   -3.8855   -0.1771    0.0000 C   0  0  0  0  0  0  0  0  0  0  0  0
   -3.5736    1.2902    0.0000 C   0  0  0  0  0  0  0  0  0  0  0  0
   -4.6883    2.2939    0.0000 N   0  0  0  0  0  0  0  0  0  0  0  0
   -7.2296    2.8340    0.0000 C   0  0  0  0  0  0  0  0  0  0  0  0
   -8.6204    3.3959    0.0000 C   0  0  0  0  0  0  0  0  0  0  0  0
   -8.4116    1.9105    0.0000 C   0  0  0  0  0  0  0  0  0  0  0  0
   -3.3459    6.5979    0.0000 C   0  0  0  0  0  0  0  0  0  0  0  0
   -4.1408    5.3258    0.0000 C   0  0  0  0  0  0  0  0  0  0  0  0
   -5.6398    5.3782    0.0000 N   0  0  0  0  0  0  0  0  0  0  0  0
   -6.3441    6.7026    0.0000 C   0  0  0  0  0  0  0  0  0  0  0  0
   -6.4347    4.1061    0.0000 S   0  0  0  0  0  0  0  0  0  0  0  0
   -7.7068    4.9010    0.0000 O   0  0  0  0  0  0  0  0  0  0  0  0
   -5.1627    3.3112    0.0000 O   0  0  0  0  0  0  0  0  0  0  0  0
   -6.2534    9.2991    0.0000 C   0  0  0  0  0  0  0  0  0  0  0  0
   -5.4585   10.5712    0.0000 C   0  0  0  0  0  0  0  0  0  0  0  0
   -3.9594   10.5188    0.0000 O   0  0  0  0  0  0  0  0  0  0  0  0
   -3.2552    9.1944    0.0000 C   0  0  0  0  0  0  0  0  0  0  0  0
   -4.0501    7.9223    0.0000 C   0  0  0  0  0  0  0  0  0  0  0  0
   -5.5492    7.9747    0.0000 N   0  0  0  0  0  0  0  0  0  0  0  0
   -8.4567   10.6759    0.0000 N   0  0  0  0  0  0  0  0  0  0  0  0
   -7.7525    9.3514    0.0000 C   0  0  0  0  0  0  0  0  0  0  0  0
  1  2  2  0
  2  3  1  0
  3  4  2  0
  4  5  1  0
  5  6  1  0
  6  7  1  0
  7  8  2  0
  8  9  1  0
  9  1  1  0
  9  5  2  0
 10 11  2  0
 11 12  1  0
 12 13  2  0
 13 14  1  0
 14 15  2  0
 15 10  1  0
 16 17  1  0
 17 18  1  0
 18 16  1  0
 19 20  1  0
 20 21  1  0
 21 22  1  0
 21 23  1  0
 23 24  2  0
 23 25  2  0
 26 27  1  0
 27 28  1  0
 28 29  1  0
 29 30  1  0
 30 31  1  0
 31 26  1  0
 32 33  1  0
  1 14  1  0
 10 16  1  0
 16 23  1  0
 22 31  1  0
 26 33  1  6
M  END

