
     RDKit          2D

 30 34  0  0  0  0  0  0  0  0999 V2000
    3.0000    2.5981    0.0000 Cl  0  0  0  0  0  0  0  0  0  0  0  0
    0.7500   -1.2990    0.0000 C   0  0  0  0  0  0  0  0  0  0  0  0
   -0.7500   -1.2990    0.0000 C   0  0  0  0  0  0  0  0  0  0  0  0
   -1.5000    0.0000    0.0000 N   0  0  0  0  0  0  0  0  0  0  0  0
   -0.7500    1.2990    0.0000 C   0  0  0  0  0  0  0  0  0  0  0  0
   -1.5000    2.5981    0.0000 C   0  0  0  0  0  0  0  0  0  0  0  0
   -0.7500    3.8971    0.0000 C   0  0  0  0  0  0  0  0  0  0  0  0
    0.7500    3.8971    0.0000 C   0  0  0  0  0  0  0  0  0  0  0  0
    1.5000    2.5981    0.0000 C   0  0  0  0  0  0  0  0  0  0  0  0
    0.7500    1.2990    0.0000 C   0  0  0  0  0  0  0  0  0  0  0  0
    1.5000   -0.0000    0.0000 C   0  0  0  0  0  0  0  0  0  0  0  0
    3.9271   -2.5981    0.0000 C   0  0  0  0  0  0  0  0  0  0  0  0
    3.4635   -4.0247    0.0000 C   0  0  0  0  0  0  0  0  0  0  0  0
    1.9635   -4.0247    0.0000 O   0  0  0  0  0  0  0  0  0  0  0  0
    1.5000   -2.5981    0.0000 C   0  0  0  0  0  0  0  0  0  0  0  0
    2.7135   -1.7164    0.0000 O   0  0  0  0  0  0  0  0  0  0  0  0
   -0.1822   -4.6754    0.0000 C   0  0  0  0  0  0  0  0  0  0  0  0
   -1.6740   -4.8322    0.0000 S   0  0  0  0  0  0  0  0  0  0  0  0
   -2.2841   -3.4619    0.0000 C   0  0  0  0  0  0  0  0  0  0  0  0
   -1.1694   -2.4582    0.0000 N   0  0  0  0  0  0  0  0  0  0  0  0
    0.1297   -3.2082    0.0000 C   0  0  0  0  0  0  0  0  0  0  0  0
   -3.7513   -3.1500    0.0000 N   0  0  0  0  0  0  0  0  0  0  0  0
   -4.2148   -1.7234    0.0000 C   0  0  0  0  0  0  0  0  0  0  0  0
   -5.6820   -1.4116    0.0000 C   0  0  0  0  0  0  0  0  0  0  0  0
   -6.6857   -2.5263    0.0000 O   0  0  0  0  0  0  0  0  0  0  0  0
   -6.2222   -3.9529    0.0000 C   0  0  0  0  0  0  0  0  0  0  0  0
   -4.7550   -4.2647    0.0000 C   0  0  0  0  0  0  0  0  0  0  0  0
    0.3580   -7.2167    0.0000 N   0  0  0  0  0  0  0  0  0  0  0  0
    0.8215   -5.7901    0.0000 C   0  0  0  0  0  0  0  0  0  0  0  0
    2.2887   -5.4783    0.0000 O   0  0  0  0  0  0  0  0  0  0  0  0
  2  3  1  0
  3  4  1  0
  4  5  1  0
  5  6  2  0
  6  7  1  0
  7  8  2  0
  8  9  1  0
  9 10  2  0
 10 11  1  0
 11  2  1  0
 10  5  1  0
 12 13  1  6
 13 14  1  0
 14 15  1  0
 15 16  1  0
 16 12  1  0
 17 18  1  0
 18 19  1  0
 19 20  2  0
 20 21  1  0
 21 17  2  0
 22 23  1  0
 23 24  1  0
 24 25  1  0
 25 26  1  0
 26 27  1  0
 27 22  1  0
 28 29  1  0
 29 30  2  0
  1  9  1  0
 15  2  1  1
 15 21  1  0
 19 22  1  0
 17 29  1  0
M  END

