
     RDKit          2D

 31 34  0  0  0  0  0  0  0  0999 V2000
   -9.0165   -4.3002    0.0000 F   0  0  0  0  0  0  0  0  0  0  0  0
   -5.6724   -1.2892    0.0000 C   0  0  0  0  0  0  0  0  0  0  0  0
   -7.0990   -0.8256    0.0000 C   0  0  0  0  0  0  0  0  0  0  0  0
   -8.2137   -1.8293    0.0000 C   0  0  0  0  0  0  0  0  0  0  0  0
   -7.9018   -3.2966    0.0000 C   0  0  0  0  0  0  0  0  0  0  0  0
   -6.4752   -3.7601    0.0000 N   0  0  0  0  0  0  0  0  0  0  0  0
   -5.3605   -2.7564    0.0000 C   0  0  0  0  0  0  0  0  0  0  0  0
   -3.5540   -1.4002    0.0000 O   0  0  0  0  0  0  0  0  0  0  0  0
   -4.5577   -0.2855    0.0000 S   0  0  0  0  0  0  0  0  0  0  0  0
   -5.5614    0.8293    0.0000 O   0  0  0  0  0  0  0  0  0  0  0  0
   -3.4430    0.7182    0.0000 C   0  0  0  0  0  0  0  0  0  0  0  0
   -2.6401    3.1891    0.0000 C   0  0  0  0  0  0  0  0  0  0  0  0
   -2.9520    4.6564    0.0000 C   0  0  0  0  0  0  0  0  0  0  0  0
   -4.3786    5.1199    0.0000 C   0  0  0  0  0  0  0  0  0  0  0  0
   -5.4933    4.1162    0.0000 N   0  0  0  0  0  0  0  0  0  0  0  0
   -5.1814    2.6490    0.0000 C   0  0  0  0  0  0  0  0  0  0  0  0
   -3.7548    2.1855    0.0000 C   0  0  0  0  0  0  0  0  0  0  0  0
   -6.2961    1.6453    0.0000 Cl  0  0  0  0  0  0  0  0  0  0  0  0
    1.5000    0.0000    0.0000 C   0  0  0  0  0  0  0  0  0  0  0  0
    0.7500   -1.2990    0.0000 N   0  0  0  0  0  0  0  0  0  0  0  0
   -0.7500   -1.2990    0.0000 C   0  0  0  0  0  0  0  0  0  0  0  0
   -1.5000    0.0000    0.0000 C   0  0  0  0  0  0  0  0  0  0  0  0
   -0.7500    1.2990    0.0000 C   0  0  0  0  0  0  0  0  0  0  0  0
   -1.2135    2.7256    0.0000 C   0  0  0  0  0  0  0  0  0  0  0  0
    0.0000    3.6073    0.0000 C   0  0  0  0  0  0  0  0  0  0  0  0
    1.2135    2.7256    0.0000 N   0  0  0  0  0  0  0  0  0  0  0  0
    0.7500    1.2990    0.0000 C   0  0  0  0  0  0  0  0  0  0  0  0
    5.2500   -1.2990    0.0000 C   0  0  0  0  0  0  0  0  0  0  0  0
    3.7500   -1.2990    0.0000 C   0  0  0  0  0  0  0  0  0  0  0  0
    3.0000   -2.5981    0.0000 O   0  0  0  0  0  0  0  0  0  0  0  0
    3.0000    0.0000    0.0000 N   0  0  0  0  0  0  0  0  0  0  0  0
  2  3  2  0
  3  4  1  0
  4  5  2  0
  5  6  1  0
  6  7  2  0
  7  2  1  0
  8  9  2  0
  9 10  2  0
  9 11  1  0
 12 13  2  0
 13 14  1  0
 14 15  2  0
 15 16  1  0
 16 17  2  0
 17 12  1  0
 19 20  2  0
 20 21  1  0
 21 22  2  0
 22 23  1  0
 23 24  1  0
 24 25  2  0
 25 26  1  0
 26 27  1  0
 27 19  1  0
 27 23  2  0
 28 29  1  0
 29 30  2  0
 29 31  1  0
  1  5  1  0
  2  9  1  0
 11 17  1  0
 16 18  1  0
 12 24  1  0
 19 31  1  0
M  ISO  1   1  18
M  END

