
     RDKit          2D

 34 37  0  0  0  0  0  0  0  0999 V2000
   -0.3207   -8.5658    0.0000 N   0  0  0  0  0  0  0  0  0  0  0  0
   -1.2647   -9.7315    0.0000 C   0  0  0  0  0  0  0  0  0  0  0  0
   -0.0990  -10.6755    0.0000 C   0  0  0  0  0  0  0  0  0  0  0  0
    0.8450   -9.5097    0.0000 C   0  0  0  0  0  0  0  0  0  0  0  0
   -1.8478   -6.4639    0.0000 C   0  0  0  0  0  0  0  0  0  0  0  0
   -0.4775   -7.0740    0.0000 C   0  0  0  0  0  0  0  0  0  0  0  0
   -3.3037   -4.2221    0.0000 C   0  0  0  0  0  0  0  0  0  0  0  0
   -2.9918   -2.7549    0.0000 N   0  0  0  0  0  0  0  0  0  0  0  0
   -1.5000   -2.5981    0.0000 C   0  0  0  0  0  0  0  0  0  0  0  0
   -0.8899   -3.9684    0.0000 C   0  0  0  0  0  0  0  0  0  0  0  0
   -2.0046   -4.9721    0.0000 N   0  0  0  0  0  0  0  0  0  0  0  0
    3.0000    0.0000    0.0000 O   0  0  0  0  0  0  0  0  0  0  0  0
    1.5000    0.0000    0.0000 C   0  0  0  0  0  0  0  0  0  0  0  0
    0.7500   -1.2990    0.0000 C   0  0  0  0  0  0  0  0  0  0  0  0
   -0.7500   -1.2990    0.0000 C   0  0  0  0  0  0  0  0  0  0  0  0
   -1.5000    0.0000    0.0000 C   0  0  0  0  0  0  0  0  0  0  0  0
   -0.7500    1.2990    0.0000 C   0  0  0  0  0  0  0  0  0  0  0  0
    0.7500    1.2990    0.0000 N   0  0  0  0  0  0  0  0  0  0  0  0
   -5.8875   -3.9505    0.0000 C   0  0  0  0  0  0  0  0  0  0  0  0
   -4.6740   -4.8322    0.0000 N   0  0  0  0  0  0  0  0  0  0  0  0
   -4.8308   -6.3240    0.0000 C   0  0  0  0  0  0  0  0  0  0  0  0
   -6.2011   -6.9341    0.0000 C   0  0  0  0  0  0  0  0  0  0  0  0
   -7.5714   -7.5442    0.0000 C   0  0  0  0  0  0  0  0  0  0  0  0
   -9.2536   -9.6215    0.0000 C   0  0  0  0  0  0  0  0  0  0  0  0
   -8.9417   -8.1543    0.0000 C   0  0  0  0  0  0  0  0  0  0  0  0
  -10.2408   -7.4043    0.0000 N   0  0  0  0  0  0  0  0  0  0  0  0
  -11.3555   -8.4080    0.0000 N   0  0  0  0  0  0  0  0  0  0  0  0
  -10.7454   -9.7783    0.0000 C   0  0  0  0  0  0  0  0  0  0  0  0
  -11.4954  -11.0773    0.0000 N   0  0  0  0  0  0  0  0  0  0  0  0
   -5.7790  -11.5391    0.0000 C   0  0  0  0  0  0  0  0  0  0  0  0
   -6.7827  -10.4244    0.0000 C   0  0  0  0  0  0  0  0  0  0  0  0
   -6.3191   -8.9978    0.0000 O   0  0  0  0  0  0  0  0  0  0  0  0
   -8.2499  -10.7362    0.0000 N   0  0  0  0  0  0  0  0  0  0  0  0
   -8.7134  -12.1628    0.0000 C   0  0  0  0  0  0  0  0  0  0  0  0
  1  2  1  0
  2  3  1  0
  3  4  1  0
  4  1  1  0
  5  6  1  0
  7  8  2  0
  8  9  1  0
  9 10  2  0
 10 11  1  0
 11  7  1  0
 12 13  2  0
 13 14  1  0
 14 15  2  0
 15 16  1  0
 16 17  2  0
 17 18  1  0
 18 13  1  0
 19 20  1  0
 20 21  1  0
 21 22  1  0
 22 23  3  0
 24 25  1  0
 25 26  2  0
 26 27  1  0
 27 28  1  0
 28 24  2  0
 30 31  1  0
 31 32  2  0
 31 33  1  0
 33 34  1  0
  1  6  1  0
  5 11  1  0
  9 15  1  0
  7 20  1  0
 23 25  1  0
 28 29  1  0
 24 33  1  0
M  END

