
     RDKit          2D

 36 41  0  0  0  0  0  0  0  0999 V2000
    1.7318   -3.8211    0.0000 N   0  0  0  0  0  0  0  0  0  0  0  0
    0.2401   -3.9779    0.0000 C   0  0  0  0  0  0  0  0  0  0  0  0
   -0.6237   -7.7620    0.0000 C   0  0  0  0  0  0  0  0  0  0  0  0
   -1.9941   -7.1518    0.0000 C   0  0  0  0  0  0  0  0  0  0  0  0
   -1.8373   -5.6601    0.0000 C   0  0  0  0  0  0  0  0  0  0  0  0
   -0.3700   -5.3482    0.0000 N   0  0  0  0  0  0  0  0  0  0  0  0
    0.3800   -6.6472    0.0000 N   0  0  0  0  0  0  0  0  0  0  0  0
   -3.7548   -2.1855    0.0000 C   0  0  0  0  0  0  0  0  0  0  0  0
   -5.1814   -2.6490    0.0000 C   0  0  0  0  0  0  0  0  0  0  0  0
   -5.4933   -4.1162    0.0000 N   0  0  0  0  0  0  0  0  0  0  0  0
   -4.3786   -5.1199    0.0000 C   0  0  0  0  0  0  0  0  0  0  0  0
   -2.9520   -4.6564    0.0000 C   0  0  0  0  0  0  0  0  0  0  0  0
   -2.6401   -3.1891    0.0000 N   0  0  0  0  0  0  0  0  0  0  0  0
   -4.6904   -6.5871    0.0000 N   0  0  0  0  0  0  0  0  0  0  0  0
   -3.6867   -7.7018    0.0000 N   0  0  0  0  0  0  0  0  0  0  0  0
   -4.4367   -9.0009    0.0000 N   0  0  0  0  0  0  0  0  0  0  0  0
   -5.9040   -8.6890    0.0000 C   0  0  0  0  0  0  0  0  0  0  0  0
   -7.1175   -9.5707    0.0000 C   0  0  0  0  0  0  0  0  0  0  0  0
   -8.4878   -8.9606    0.0000 C   0  0  0  0  0  0  0  0  0  0  0  0
   -8.6446   -7.4688    0.0000 C   0  0  0  0  0  0  0  0  0  0  0  0
   -7.4311   -6.5871    0.0000 C   0  0  0  0  0  0  0  0  0  0  0  0
   -6.0607   -7.1972    0.0000 C   0  0  0  0  0  0  0  0  0  0  0  0
   -3.4430   -0.7182    0.0000 N   0  0  0  0  0  0  0  0  0  0  0  0
    1.7900  -10.4427    0.0000 N   0  0  0  0  0  0  0  0  0  0  0  0
    0.6753  -11.4464    0.0000 C   0  0  0  0  0  0  0  0  0  0  0  0
   -0.6237  -10.6964    0.0000 C   0  0  0  0  0  0  0  0  0  0  0  0
   -1.7385   -9.6927    0.0000 C   0  0  0  0  0  0  0  0  0  0  0  0
   -0.3119   -9.2292    0.0000 C   0  0  0  0  0  0  0  0  0  0  0  0
    1.1799   -9.0724    0.0000 C   0  0  0  0  0  0  0  0  0  0  0  0
    7.1187  -14.2315    0.0000 C   0  0  0  0  0  0  0  0  0  0  0  0
    5.6515  -13.9196    0.0000 N   0  0  0  0  0  0  0  0  0  0  0  0
    4.6478  -15.0343    0.0000 C   0  0  0  0  0  0  0  0  0  0  0  0
    5.1880  -12.4930    0.0000 C   0  0  0  0  0  0  0  0  0  0  0  0
    6.1917  -11.3783    0.0000 O   0  0  0  0  0  0  0  0  0  0  0  0
    3.7208  -12.1812    0.0000 N   0  0  0  0  0  0  0  0  0  0  0  0
    3.2572  -10.7546    0.0000 C   0  0  0  0  0  0  0  0  0  0  0  0
  1  2  1  0
  3  4  1  0
  4  5  2  0
  5  6  1  0
  6  7  1  0
  7  3  2  0
  8  9  2  0
  9 10  1  0
 10 11  2  0
 11 12  1  0
 12 13  2  0
 13  8  1  0
 14 15  1  0
 15 16  2  0
 16 17  1  0
 17 18  2  0
 18 19  1  0
 19 20  2  0
 20 21  1  0
 21 22  2  0
 22 14  1  0
 22 17  1  0
 24 25  1  0
 26 25  1  1
 26 27  1  0
 27 28  1  0
 28 29  1  0
 29 24  1  0
 28 26  1  0
 30 31  1  0
 31 32  1  0
 31 33  1  0
 33 34  2  0
 33 35  1  0
 35 36  1  0
  2  6  1  0
  5 12  1  0
 11 14  1  0
  8 23  1  0
 28  3  1  6
 24 36  1  0
M  END

