
     RDKit          2D

 38 42  0  0  0  0  0  0  0  0999 V2000
    3.7500   -1.2990    0.0000 C   0  0  0  0  0  0  0  0  0  0  0  0
    3.0000    0.0000    0.0000 O   0  0  0  0  0  0  0  0  0  0  0  0
    1.5000    0.0000    0.0000 C   0  0  0  0  0  0  0  0  0  0  0  0
    0.7500   -1.2990    0.0000 N   0  0  0  0  0  0  0  0  0  0  0  0
   -0.7500   -1.2990    0.0000 C   0  0  0  0  0  0  0  0  0  0  0  0
   -1.5000    0.0000    0.0000 C   0  0  0  0  0  0  0  0  0  0  0  0
   -3.0000    0.0000    0.0000 N   0  0  0  0  0  0  0  0  0  0  0  0
   -3.7500    1.2990    0.0000 C   0  0  0  0  0  0  0  0  0  0  0  0
   -3.0000    2.5981    0.0000 N   0  0  0  0  0  0  0  0  0  0  0  0
   -3.7500    3.8971    0.0000 C   0  0  0  0  0  0  0  0  0  0  0  0
   -5.2500    3.8971    0.0000 C   0  0  0  0  0  0  0  0  0  0  0  0
   -6.0000    5.1962    0.0000 C   0  0  0  0  0  0  0  0  0  0  0  0
   -7.2990    5.9462    0.0000 C   0  0  0  0  0  0  0  0  0  0  0  0
   -6.0000    6.6962    0.0000 C   0  0  0  0  0  0  0  0  0  0  0  0
   -5.2500    7.9952    0.0000 N   0  0  0  0  0  0  0  0  0  0  0  0
   -3.7500    7.9952    0.0000 C   0  0  0  0  0  0  0  0  0  0  0  0
   -3.0000    9.2942    0.0000 C   0  0  0  0  0  0  0  0  0  0  0  0
   -3.7500   10.5933    0.0000 N   0  0  0  0  0  0  0  0  0  0  0  0
   -3.0000   11.8923    0.0000 N   0  0  0  0  0  0  0  0  0  0  0  0
   -1.5000   11.8923    0.0000 S   0  0  0  0  0  0  0  0  0  0  0  0
    0.0000   11.8923    0.0000 C   0  0  0  0  0  0  0  0  0  0  0  0
   -1.5000   10.3923    0.0000 O   0  0  0  0  0  0  0  0  0  0  0  0
   -1.5000   13.3923    0.0000 O   0  0  0  0  0  0  0  0  0  0  0  0
   -5.2500   10.5933    0.0000 C   0  0  0  0  0  0  0  0  0  0  0  0
   -6.0000    9.2942    0.0000 C   0  0  0  0  0  0  0  0  0  0  0  0
   -6.0000    2.5981    0.0000 C   0  0  0  0  0  0  0  0  0  0  0  0
   -5.2500    1.2990    0.0000 C   0  0  0  0  0  0  0  0  0  0  0  0
   -6.0000    0.0000    0.0000 C   0  0  0  0  0  0  0  0  0  0  0  0
   -7.5000    0.0000    0.0000 N   0  0  0  0  0  0  0  0  0  0  0  0
   -8.2500   -1.2990    0.0000 C   0  0  0  0  0  0  0  0  0  0  0  0
   -9.7500   -1.2990    0.0000 C   0  0  0  0  0  0  0  0  0  0  0  0
  -11.2500   -1.2990    0.0000 N   0  0  0  0  0  0  0  0  0  0  0  0
   -7.5000   -2.5981    0.0000 N   0  0  0  0  0  0  0  0  0  0  0  0
   -6.0000   -2.5981    0.0000 C   0  0  0  0  0  0  0  0  0  0  0  0
   -5.2500   -3.8971    0.0000 N   0  0  0  0  0  0  0  0  0  0  0  0
   -5.2500   -1.2990    0.0000 N   0  0  0  0  0  0  0  0  0  0  0  0
   -0.7500    1.2990    0.0000 C   0  0  0  0  0  0  0  0  0  0  0  0
    0.7500    1.2990    0.0000 N   0  0  0  0  0  0  0  0  0  0  0  0
  1  2  1  0
  2  3  1  0
  3  4  2  0
  4  5  1  0
  5  6  2  0
  6  7  1  0
  7  8  1  0
  8  9  2  0
  9 10  1  0
 10 11  2  0
 12 11  1  6
 12 13  1  0
 13 14  1  0
 14 15  1  6
 15 16  1  0
 16 17  1  0
 17 18  1  0
 18 19  1  0
 19 20  1  0
 20 21  1  0
 20 22  2  0
 20 23  2  0
 18 24  1  0
 24 25  1  0
 11 26  1  0
 26 27  2  0
 27 28  1  0
 28 29  2  0
 29 30  1  0
 30 31  1  0
 31 32  3  0
 30 33  2  0
 33 34  1  0
 34 35  1  0
 34 36  2  0
  6 37  1  0
 37 38  2  0
 38  3  1  0
 27  8  1  0
 36 28  1  0
 14 12  1  0
 25 15  1  0
M  END

