
     RDKit          2D

 43 47  0  0  0  0  0  0  0  0999 V2000
   -5.4413   -4.7367    0.0000 F   0  0  0  0  0  0  0  0  0  0  0  0
   -5.2912   -8.0874    0.0000 N   0  0  0  0  0  0  0  0  0  0  0  0
   -6.6615   -7.4773    0.0000 C   0  0  0  0  0  0  0  0  0  0  0  0
   -6.0514   -6.1070    0.0000 C   0  0  0  0  0  0  0  0  0  0  0  0
   -4.6811   -6.7171    0.0000 C   0  0  0  0  0  0  0  0  0  0  0  0
   -8.4785   -7.8704    0.0000 C   0  0  0  0  0  0  0  0  0  0  0  0
   -8.6353   -6.3786    0.0000 C   0  0  0  0  0  0  0  0  0  0  0  0
   -7.4217   -5.4969    0.0000 C   0  0  0  0  0  0  0  0  0  0  0  0
   -7.5785   -4.0051    0.0000 C   0  0  0  0  0  0  0  0  0  0  0  0
   -6.5218   -1.6317    0.0000 C   0  0  0  0  0  0  0  0  0  0  0  0
   -6.3650   -3.1235    0.0000 C   0  0  0  0  0  0  0  0  0  0  0  0
   -5.3083    0.7500    0.0000 C   0  0  0  0  0  0  0  0  0  0  0  0
   -3.8817    1.2135    0.0000 N   0  0  0  0  0  0  0  0  0  0  0  0
   -3.0000    0.0000    0.0000 C   0  0  0  0  0  0  0  0  0  0  0  0
   -3.8817   -1.2135    0.0000 C   0  0  0  0  0  0  0  0  0  0  0  0
   -5.3083   -0.7500    0.0000 N   0  0  0  0  0  0  0  0  0  0  0  0
    1.5000    0.0000    0.0000 C   0  0  0  0  0  0  0  0  0  0  0  0
    0.7500   -1.2990    0.0000 C   0  0  0  0  0  0  0  0  0  0  0  0
   -0.7500   -1.2990    0.0000 C   0  0  0  0  0  0  0  0  0  0  0  0
   -1.5000    0.0000    0.0000 C   0  0  0  0  0  0  0  0  0  0  0  0
   -0.7500    1.2990    0.0000 C   0  0  0  0  0  0  0  0  0  0  0  0
    0.7500    1.2990    0.0000 C   0  0  0  0  0  0  0  0  0  0  0  0
    4.5000   -2.5981    0.0000 F   0  0  0  0  0  0  0  0  0  0  0  0
    3.7500   -1.2990    0.0000 C   0  0  0  0  0  0  0  0  0  0  0  0
    5.0490   -0.5490    0.0000 F   0  0  0  0  0  0  0  0  0  0  0  0
    2.4510   -2.0490    0.0000 F   0  0  0  0  0  0  0  0  0  0  0  0
    3.0000    0.0000    0.0000 C   0  0  0  0  0  0  0  0  0  0  0  0
    3.7500    1.2990    0.0000 F   0  0  0  0  0  0  0  0  0  0  0  0
   -8.9488    3.3950    0.0000 N   0  0  0  0  0  0  0  0  0  0  0  0
   -9.1056    1.9033    0.0000 C   0  0  0  0  0  0  0  0  0  0  0  0
   -7.8921    1.0216    0.0000 C   0  0  0  0  0  0  0  0  0  0  0  0
   -6.5218    1.6317    0.0000 C   0  0  0  0  0  0  0  0  0  0  0  0
   -6.3650    3.1235    0.0000 C   0  0  0  0  0  0  0  0  0  0  0  0
   -7.5785    4.0051    0.0000 C   0  0  0  0  0  0  0  0  0  0  0  0
  -11.5327    3.6666    0.0000 C   0  0  0  0  0  0  0  0  0  0  0  0
  -12.7462    4.5483    0.0000 C   0  0  0  0  0  0  0  0  0  0  0  0
  -12.5894    6.0401    0.0000 N   0  0  0  0  0  0  0  0  0  0  0  0
  -11.2191    6.6502    0.0000 C   0  0  0  0  0  0  0  0  0  0  0  0
  -10.0056    5.7685    0.0000 N   0  0  0  0  0  0  0  0  0  0  0  0
  -10.1624    4.2767    0.0000 C   0  0  0  0  0  0  0  0  0  0  0  0
  -14.1165    3.9382    0.0000 I   0  0  0  0  0  0  0  0  0  0  0  0
  -13.0598    1.5647    0.0000 C   0  0  0  0  0  0  0  0  0  0  0  0
  -11.6895    2.1748    0.0000 C   0  0  0  0  0  0  0  0  0  0  0  0
  2  3  1  0
  3  4  1  0
  4  5  1  0
  5  2  1  0
  6  7  1  0
  7  8  1  0
  8  9  2  0
 10 11  1  0
 12 13  2  0
 13 14  1  0
 14 15  2  0
 15 16  1  0
 16 12  1  0
 17 18  2  0
 18 19  1  0
 19 20  2  0
 20 21  1  0
 21 22  2  0
 22 17  1  0
 23 24  1  0
 24 25  1  0
 24 26  1  0
 24 27  1  0
 29 30  1  0
 30 31  1  0
 31 32  1  0
 32 33  1  0
 33 34  1  0
 34 29  1  0
 35 36  2  0
 36 37  1  0
 37 38  2  0
 38 39  1  0
 39 40  2  0
 40 35  1  0
 42 43  1  0
  1  4  1  0
  4  8  1  0
  9 11  1  0
 10 16  1  0
 14 20  1  0
 17 27  1  0
 27 28  1  1
 12 32  1  0
 29 40  1  0
 36 41  1  0
 35 43  1  0
M  END

