
     RDKit          2D

 27 30  0  0  0  0  0  0  0  0999 V2000
   -1.2114   -6.1554    0.0000 F   0  0  0  0  0  0  0  0  0  0  0  0
   -0.0967   -5.1517    0.0000 C   0  0  0  0  0  0  0  0  0  0  0  0
    1.2760    0.0000    0.0000 N   0  0  0  0  0  0  0  0  0  0  0  0
    0.3943    1.2135    0.0000 C   0  0  0  0  0  0  0  0  0  0  0  0
   -1.0323    0.7500    0.0000 C   0  0  0  0  0  0  0  0  0  0  0  0
   -1.0323   -0.7500    0.0000 C   0  0  0  0  0  0  0  0  0  0  0  0
   -2.1470   -1.7537    0.0000 C   0  0  0  0  0  0  0  0  0  0  0  0
   -1.8351   -3.2209    0.0000 C   0  0  0  0  0  0  0  0  0  0  0  0
   -0.4086   -3.6844    0.0000 C   0  0  0  0  0  0  0  0  0  0  0  0
    0.7062   -2.6807    0.0000 C   0  0  0  0  0  0  0  0  0  0  0  0
    0.3943   -1.2135    0.0000 C   0  0  0  0  0  0  0  0  0  0  0  0
   -3.8855    0.1771    0.0000 O   0  0  0  0  0  0  0  0  0  0  0  0
   -3.5736   -1.2902    0.0000 C   0  0  0  0  0  0  0  0  0  0  0  0
   -4.6883   -2.2939    0.0000 C   0  0  0  0  0  0  0  0  0  0  0  0
   -7.3284   -2.7120    0.0000 C   0  0  0  0  0  0  0  0  0  0  0  0
   -8.5419   -1.8303    0.0000 S   0  0  0  0  0  0  0  0  0  0  0  0
   -8.0784   -0.4038    0.0000 C   0  0  0  0  0  0  0  0  0  0  0  0
   -6.5784   -0.4038    0.0000 N   0  0  0  0  0  0  0  0  0  0  0  0
   -6.1149   -1.8303    0.0000 C   0  0  0  0  0  0  0  0  0  0  0  0
   -8.9601    0.8098    0.0000 C   0  0  0  0  0  0  0  0  0  0  0  0
   -8.4966    2.2364    0.0000 C   0  0  0  0  0  0  0  0  0  0  0  0
   -9.7101    3.1180    0.0000 C   0  0  0  0  0  0  0  0  0  0  0  0
  -10.9236    2.2364    0.0000 C   0  0  0  0  0  0  0  0  0  0  0  0
  -10.4601    0.8098    0.0000 C   0  0  0  0  0  0  0  0  0  0  0  0
   -6.0294   -4.9620    0.0000 O   0  0  0  0  0  0  0  0  0  0  0  0
   -7.3284   -4.2120    0.0000 C   0  0  0  0  0  0  0  0  0  0  0  0
   -8.6275   -4.9620    0.0000 O   0  0  0  0  0  0  0  0  0  0  0  0
  1  2  1  0
  3  4  1  0
  4  5  1  0
  5  6  1  0
  6  7  2  0
  7  8  1  0
  8  9  2  0
  9 10  1  0
 10 11  2  0
 11  3  1  0
 11  6  1  0
 12 13  2  0
 13 14  1  0
 15 16  1  0
 16 17  1  0
 17 18  2  0
 18 19  1  0
 19 15  2  0
 20 21  1  0
 21 22  1  0
 22 23  1  0
 23 24  1  0
 24 20  1  0
 25 26  2  0
 26 27  1  0
  2  9  1  0
  7 13  1  0
 14 19  1  0
 17 20  1  0
 15 26  1  0
M  END

