
     RDKit          2D

 39 45  0  0  0  0  0  0  0  0999 V2000
   -4.8581   -0.1399    0.0000 C   0  0  0  0  0  0  0  0  0  0  0  0
   -3.6446   -1.0216    0.0000 N   0  0  0  0  0  0  0  0  0  0  0  0
   -4.1081   -2.4482    0.0000 C   0  0  0  0  0  0  0  0  0  0  0  0
   -5.6081   -2.4482    0.0000 C   0  0  0  0  0  0  0  0  0  0  0  0
   -6.0716   -1.0216    0.0000 N   0  0  0  0  0  0  0  0  0  0  0  0
   -3.5591    2.1101    0.0000 O   0  0  0  0  0  0  0  0  0  0  0  0
   -4.8581    1.3601    0.0000 C   0  0  0  0  0  0  0  0  0  0  0  0
   -4.9294    1.5000    0.0000 C   0  0  0  0  0  0  0  0  0  0  0  0
   -6.2284    0.7500    0.0000 C   0  0  0  0  0  0  0  0  0  0  0  0
   -7.5275    1.5000    0.0000 C   0  0  0  0  0  0  0  0  0  0  0  0
   -8.5312    2.6147    0.0000 C   0  0  0  0  0  0  0  0  0  0  0  0
   -7.7812    3.9138    0.0000 C   0  0  0  0  0  0  0  0  0  0  0  0
   -6.3140    3.6019    0.0000 C   0  0  0  0  0  0  0  0  0  0  0  0
   -4.9294    3.0000    0.0000 C   0  0  0  0  0  0  0  0  0  0  0  0
   -6.1572    2.1101    0.0000 N   0  0  0  0  0  0  0  0  0  0  0  0
    0.3943    1.2135    0.0000 C   0  0  0  0  0  0  0  0  0  0  0  0
    1.2760    0.0000    0.0000 C   0  0  0  0  0  0  0  0  0  0  0  0
    0.3943   -1.2135    0.0000 N   0  0  0  0  0  0  0  0  0  0  0  0
   -1.0323   -0.7500    0.0000 C   0  0  0  0  0  0  0  0  0  0  0  0
   -2.3313   -1.5000    0.0000 C   0  0  0  0  0  0  0  0  0  0  0  0
   -3.6304   -0.7500    0.0000 N   0  0  0  0  0  0  0  0  0  0  0  0
   -3.6304    0.7500    0.0000 C   0  0  0  0  0  0  0  0  0  0  0  0
   -2.3313    1.5000    0.0000 C   0  0  0  0  0  0  0  0  0  0  0  0
   -1.0323    0.7500    0.0000 N   0  0  0  0  0  0  0  0  0  0  0  0
   -2.3313   -3.0000    0.0000 N   0  0  0  0  0  0  0  0  0  0  0  0
    1.7849    5.4933    0.0000 C   0  0  0  0  0  0  0  0  0  0  0  0
    0.3177    5.1814    0.0000 C   0  0  0  0  0  0  0  0  0  0  0  0
   -0.1459    3.7548    0.0000 C   0  0  0  0  0  0  0  0  0  0  0  0
    0.8578    2.6401    0.0000 C   0  0  0  0  0  0  0  0  0  0  0  0
    2.3250    2.9520    0.0000 N   0  0  0  0  0  0  0  0  0  0  0  0
    2.7886    4.3786    0.0000 N   0  0  0  0  0  0  0  0  0  0  0  0
    4.7193    6.1170    0.0000 O   0  0  0  0  0  0  0  0  0  0  0  0
    3.7156    7.2317    0.0000 C   0  0  0  0  0  0  0  0  0  0  0  0
    2.2484    6.9199    0.0000 C   0  0  0  0  0  0  0  0  0  0  0  0
    1.2447    8.0346    0.0000 C   0  0  0  0  0  0  0  0  0  0  0  0
    1.7082    9.4612    0.0000 C   0  0  0  0  0  0  0  0  0  0  0  0
    3.1755    9.7730    0.0000 C   0  0  0  0  0  0  0  0  0  0  0  0
    4.1791    8.6583    0.0000 N   0  0  0  0  0  0  0  0  0  0  0  0
    5.6464    8.9702    0.0000 C   0  0  0  0  0  0  0  0  0  0  0  0
  1  2  2  0
  2  3  1  0
  3  4  2  0
  4  5  1  0
  5  1  1  0
  6  7  2  0
  8  9  1  0
 10  9  1  6
 10 11  1  0
 11 12  1  0
 13 12  1  6
 13 14  1  0
 13 15  1  0
 14  8  1  0
 15 10  1  0
 16 17  2  0
 17 18  1  0
 18 19  2  0
 19 20  1  0
 20 21  2  0
 21 22  1  0
 22 23  2  0
 23 24  1  0
 24 16  1  0
 24 19  1  0
 26 27  2  0
 27 28  1  0
 28 29  2  0
 29 30  1  0
 30 31  2  0
 31 26  1  0
 32 33  2  0
 33 34  1  0
 34 35  2  0
 35 36  1  0
 36 37  2  0
 37 38  1  0
 38 33  1  0
  1  7  1  0
  7 15  1  0
  8 22  1  1
 20 25  1  0
 16 29  1  0
 26 34  1  0
 38 39  1  0
M  END

