
     RDKit          2D

 29 32  0  0  0  0  0  0  0  0999 V2000
   -2.7984   12.9873    0.0000 C   0  0  0  0  0  0  0  0  0  0  0  0
   -3.2619   11.5608    0.0000 N   0  0  0  0  0  0  0  0  0  0  0  0
   -2.2582   10.4460    0.0000 C   0  0  0  0  0  0  0  0  0  0  0  0
   -4.7291   11.2489    0.0000 C   0  0  0  0  0  0  0  0  0  0  0  0
   -5.1927    7.3952    0.0000 C   0  0  0  0  0  0  0  0  0  0  0  0
   -6.6192    7.8588    0.0000 C   0  0  0  0  0  0  0  0  0  0  0  0
   -6.6192    9.3588    0.0000 S   0  0  0  0  0  0  0  0  0  0  0  0
   -5.1927    9.8223    0.0000 C   0  0  0  0  0  0  0  0  0  0  0  0
   -4.3110    8.6088    0.0000 N   0  0  0  0  0  0  0  0  0  0  0  0
   -5.6108    4.7551    0.0000 C   0  0  0  0  0  0  0  0  0  0  0  0
   -4.7291    3.5416    0.0000 S   0  0  0  0  0  0  0  0  0  0  0  0
   -3.3025    4.0051    0.0000 C   0  0  0  0  0  0  0  0  0  0  0  0
   -3.3025    5.5051    0.0000 N   0  0  0  0  0  0  0  0  0  0  0  0
   -4.7291    5.9687    0.0000 C   0  0  0  0  0  0  0  0  0  0  0  0
   -0.7187    3.7336    0.0000 O   0  0  0  0  0  0  0  0  0  0  0  0
   -2.0890    3.1235    0.0000 C   0  0  0  0  0  0  0  0  0  0  0  0
   -2.2458    1.6317    0.0000 N   0  0  0  0  0  0  0  0  0  0  0  0
   -2.0890    1.6235    0.0000 N   0  0  0  0  0  0  0  0  0  0  0  0
   -0.7187    2.2336    0.0000 C   0  0  0  0  0  0  0  0  0  0  0  0
    0.3943    1.2135    0.0000 C   0  0  0  0  0  0  0  0  0  0  0  0
    1.2760    0.0000    0.0000 C   0  0  0  0  0  0  0  0  0  0  0  0
    0.3943   -1.2135    0.0000 C   0  0  0  0  0  0  0  0  0  0  0  0
   -1.0323   -0.7500    0.0000 C   0  0  0  0  0  0  0  0  0  0  0  0
   -2.2458    0.1317    0.0000 C   0  0  0  0  0  0  0  0  0  0  0  0
   -1.0323    0.7500    0.0000 C   0  0  0  0  0  0  0  0  0  0  0  0
   -3.5114    3.9905    0.0000 N   0  0  0  0  0  0  0  0  0  0  0  0
   -3.3025    2.5051    0.0000 C   0  0  0  0  0  0  0  0  0  0  0  0
   -4.6729    1.8950    0.0000 O   0  0  0  0  0  0  0  0  0  0  0  0
   -7.1108    4.7551    0.0000 C   0  0  0  0  0  0  0  0  0  0  0  0
  1  2  1  0
  2  3  1  0
  2  4  1  0
  5  6  2  0
  6  7  1  0
  7  8  1  0
  8  9  2  0
  9  5  1  0
 10 11  1  0
 11 12  1  0
 12 13  2  0
 13 14  1  0
 14 10  2  0
 15 16  2  0
 16 17  1  0
 18 19  1  0
 19 20  1  0
 20 21  1  0
 21 22  1  0
 22 23  1  0
 23 24  1  0
 23 25  1  0
 24 18  1  0
 25 20  1  0
 26 27  1  0
 27 28  2  0
  4  8  1  0
  5 14  1  0
 12 16  1  0
 17 25  1  0
 18 27  1  0
 10 29  1  0
M  END

