
     RDKit          2D

 38 42  0  0  0  0  0  0  0  0999 V2000
   -7.0505   -2.5713    0.0000 C   0  0  0  0  0  0  0  0  0  0  0  0
   -5.6239   -2.1078    0.0000 O   0  0  0  0  0  0  0  0  0  0  0  0
   -5.3120   -0.6406    0.0000 C   0  0  0  0  0  0  0  0  0  0  0  0
   -3.8855   -0.1771    0.0000 C   0  0  0  0  0  0  0  0  0  0  0  0
   -3.5736    1.2902    0.0000 N   0  0  0  0  0  0  0  0  0  0  0  0
   -4.6883    2.2939    0.0000 C   0  0  0  0  0  0  0  0  0  0  0  0
   -2.1470    1.7537    0.0000 C   0  0  0  0  0  0  0  0  0  0  0  0
   -1.8351    3.2209    0.0000 N   0  0  0  0  0  0  0  0  0  0  0  0
   -0.4086    3.6844    0.0000 C   0  0  0  0  0  0  0  0  0  0  0  0
   -0.0967    5.1517    0.0000 C   0  0  0  0  0  0  0  0  0  0  0  0
    1.3299    5.6152    0.0000 N   0  0  0  0  0  0  0  0  0  0  0  0
    1.6418    7.0824    0.0000 C   0  0  0  0  0  0  0  0  0  0  0  0
    0.5271    8.0861    0.0000 C   0  0  0  0  0  0  0  0  0  0  0  0
    0.8389    9.5533    0.0000 N   0  0  0  0  0  0  0  0  0  0  0  0
   -0.8995    7.6226    0.0000 C   0  0  0  0  0  0  0  0  0  0  0  0
   -1.2114    6.1554    0.0000 N   0  0  0  0  0  0  0  0  0  0  0  0
    0.7062    2.6807    0.0000 C   0  0  0  0  0  0  0  0  0  0  0  0
    0.3943    1.2135    0.0000 N   0  0  0  0  0  0  0  0  0  0  0  0
    1.2760    0.0000    0.0000 C   0  0  0  0  0  0  0  0  0  0  0  0
    0.3943   -1.2135    0.0000 C   0  0  0  0  0  0  0  0  0  0  0  0
    0.8578   -2.6401    0.0000 C   0  0  0  0  0  0  0  0  0  0  0  0
    1.9725   -3.6438    0.0000 C   0  0  0  0  0  0  0  0  0  0  0  0
    0.5460   -4.1073    0.0000 C   0  0  0  0  0  0  0  0  0  0  0  0
   -0.4577   -5.2220    0.0000 N   0  0  0  0  0  0  0  0  0  0  0  0
   -0.1459   -6.6893    0.0000 C   0  0  0  0  0  0  0  0  0  0  0  0
   -1.4449   -7.4393    0.0000 C   0  0  0  0  0  0  0  0  0  0  0  0
   -2.5596   -6.4356    0.0000 N   0  0  0  0  0  0  0  0  0  0  0  0
   -4.0268   -6.7474    0.0000 C   0  0  0  0  0  0  0  0  0  0  0  0
   -5.0305   -5.6327    0.0000 N   0  0  0  0  0  0  0  0  0  0  0  0
   -6.4978   -5.9446    0.0000 C   0  0  0  0  0  0  0  0  0  0  0  0
   -6.9613   -7.3712    0.0000 O   0  0  0  0  0  0  0  0  0  0  0  0
   -7.5015   -4.8299    0.0000 N   0  0  0  0  0  0  0  0  0  0  0  0
   -8.9687   -5.1417    0.0000 C   0  0  0  0  0  0  0  0  0  0  0  0
   -7.0379   -3.4033    0.0000 C   0  0  0  0  0  0  0  0  0  0  0  0
   -1.9495   -5.0653    0.0000 C   0  0  0  0  0  0  0  0  0  0  0  0
   -2.6995   -3.7662    0.0000 O   0  0  0  0  0  0  0  0  0  0  0  0
   -1.0323   -0.7500    0.0000 N   0  0  0  0  0  0  0  0  0  0  0  0
   -1.0323    0.7500    0.0000 C   0  0  0  0  0  0  0  0  0  0  0  0
  1  2  1  0
  2  3  1  0
  3  4  1  0
  4  5  1  0
  5  6  1  0
  5  7  1  0
  7  8  2  0
  8  9  1  0
  9 10  1  0
 10 11  2  0
 11 12  1  0
 12 13  2  0
 13 14  1  0
 13 15  1  0
 15 16  2  0
  9 17  2  0
 17 18  1  0
 18 19  1  0
 19 20  2  0
 21 20  1  6
 21 22  1  0
 22 23  1  0
 23 24  1  6
 24 25  1  0
 25 26  1  0
 26 27  1  0
 27 28  1  0
 28 29  1  0
 29 30  1  0
 30 31  2  0
 30 32  1  0
 32 33  1  0
 32 34  1  0
 27 35  1  0
 35 36  2  0
 20 37  1  0
 37 38  2  0
 38  7  1  0
 16 10  1  0
 38 18  1  0
 23 21  1  0
 35 24  1  0
M  END

