
     RDKit          2D

 40 44  0  0  0  0  0  0  0  0999 V2000
    0.7500   -1.2990    0.0000 C   0  0  0  0  0  0  0  0  0  0  0  0
    1.5000    0.0000    0.0000 C   0  0  0  0  0  0  0  0  0  0  0  0
    0.7500    1.2990    0.0000 C   0  0  0  0  0  0  0  0  0  0  0  0
   -0.7500    1.2990    0.0000 N   0  0  0  0  0  0  0  0  0  0  0  0
   -1.5000    0.0000    0.0000 N   0  0  0  0  0  0  0  0  0  0  0  0
   -0.7500   -1.2990    0.0000 C   0  0  0  0  0  0  0  0  0  0  0  0
    1.5000   -5.1962    0.0000 C   0  0  0  0  0  0  0  0  0  0  0  0
    3.0000   -5.1962    0.0000 C   0  0  0  0  0  0  0  0  0  0  0  0
    3.7500   -3.8971    0.0000 C   0  0  0  0  0  0  0  0  0  0  0  0
    3.0000   -2.5981    0.0000 C   0  0  0  0  0  0  0  0  0  0  0  0
    1.5000   -2.5981    0.0000 C   0  0  0  0  0  0  0  0  0  0  0  0
    0.7500   -3.8971    0.0000 C   0  0  0  0  0  0  0  0  0  0  0  0
   -0.7500   -3.8971    0.0000 N   0  0  0  0  0  0  0  0  0  0  0  0
   -0.7500   -9.0933    0.0000 C   0  0  0  0  0  0  0  0  0  0  0  0
    0.7500   -9.0933    0.0000 C   0  0  0  0  0  0  0  0  0  0  0  0
    1.5000   -7.7942    0.0000 C   0  0  0  0  0  0  0  0  0  0  0  0
    0.7500   -6.4952    0.0000 N   0  0  0  0  0  0  0  0  0  0  0  0
   -0.7500   -6.4952    0.0000 C   0  0  0  0  0  0  0  0  0  0  0  0
   -1.5000   -7.7942    0.0000 C   0  0  0  0  0  0  0  0  0  0  0  0
   -2.9918  -10.5491    0.0000 N   0  0  0  0  0  0  0  0  0  0  0  0
   -3.3037  -12.0163    0.0000 C   0  0  0  0  0  0  0  0  0  0  0  0
   -2.0046  -12.7663    0.0000 C   0  0  0  0  0  0  0  0  0  0  0  0
   -0.8899  -11.7626    0.0000 N   0  0  0  0  0  0  0  0  0  0  0  0
   -1.5000  -10.3923    0.0000 C   0  0  0  0  0  0  0  0  0  0  0  0
   -0.3207  -16.3600    0.0000 C   0  0  0  0  0  0  0  0  0  0  0  0
   -1.5342  -17.2417    0.0000 C   0  0  0  0  0  0  0  0  0  0  0  0
   -2.9046  -16.6316    0.0000 C   0  0  0  0  0  0  0  0  0  0  0  0
   -3.0613  -15.1398    0.0000 C   0  0  0  0  0  0  0  0  0  0  0  0
   -1.8478  -14.2581    0.0000 C   0  0  0  0  0  0  0  0  0  0  0  0
   -0.4775  -14.8682    0.0000 C   0  0  0  0  0  0  0  0  0  0  0  0
   -5.8020  -13.9196    0.0000 F   0  0  0  0  0  0  0  0  0  0  0  0
   -4.4317  -14.5297    0.0000 C   0  0  0  0  0  0  0  0  0  0  0  0
   -5.0418  -15.9000    0.0000 F   0  0  0  0  0  0  0  0  0  0  0  0
   -3.8216  -13.1594    0.0000 F   0  0  0  0  0  0  0  0  0  0  0  0
    1.0496  -16.9701    0.0000 F   0  0  0  0  0  0  0  0  0  0  0  0
   -7.9336   -8.9434    0.0000 C   0  0  0  0  0  0  0  0  0  0  0  0
   -6.4664   -8.6315    0.0000 N   0  0  0  0  0  0  0  0  0  0  0  0
   -6.0029   -7.2049    0.0000 C   0  0  0  0  0  0  0  0  0  0  0  0
   -5.4627   -9.7462    0.0000 C   0  0  0  0  0  0  0  0  0  0  0  0
   -3.9955   -9.4344    0.0000 C   0  0  0  0  0  0  0  0  0  0  0  0
  1  2  2  0
  2  3  1  0
  3  4  2  0
  4  5  1  0
  5  6  2  0
  6  1  1  0
  7  8  2  0
  8  9  1  0
  9 10  2  0
 10 11  1  0
 11 12  2  0
 12  7  1  0
 14 15  1  0
 15 16  1  0
 16 17  1  0
 17 18  1  0
 18 19  1  0
 19 14  1  0
 20 21  1  0
 21 22  2  0
 22 23  1  0
 23 24  2  0
 24 20  1  0
 25 26  2  0
 26 27  1  0
 27 28  2  0
 28 29  1  0
 29 30  2  0
 30 25  1  0
 31 32  1  0
 32 33  1  0
 32 34  1  0
 36 37  1  0
 37 38  1  0
 37 39  1  0
 39 40  1  0
  1 11  1  0
 12 13  1  0
  7 17  1  0
 14 24  1  0
 22 29  1  0
 28 32  1  0
 25 35  1  0
 20 40  1  0
M  END

