
     RDKit          2D

 31 35  0  0  0  0  0  0  0  0999 V2000
   -1.2135   -2.7256    0.0000 C   0  0  0  0  0  0  0  0  0  0  0  0
   -0.0000   -3.6073    0.0000 N   0  0  0  0  0  0  0  0  0  0  0  0
    1.2135   -2.7256    0.0000 N   0  0  0  0  0  0  0  0  0  0  0  0
    0.7500   -1.2990    0.0000 C   0  0  0  0  0  0  0  0  0  0  0  0
    1.5000    0.0000    0.0000 C   0  0  0  0  0  0  0  0  0  0  0  0
    0.7500    1.2990    0.0000 C   0  0  0  0  0  0  0  0  0  0  0  0
   -0.7500    1.2990    0.0000 C   0  0  0  0  0  0  0  0  0  0  0  0
   -1.5000    0.0000    0.0000 C   0  0  0  0  0  0  0  0  0  0  0  0
   -0.7500   -1.2990    0.0000 C   0  0  0  0  0  0  0  0  0  0  0  0
   -4.3786   -5.1199    0.0000 C   0  0  0  0  0  0  0  0  0  0  0  0
   -2.9520   -4.6564    0.0000 C   0  0  0  0  0  0  0  0  0  0  0  0
   -2.6401   -3.1891    0.0000 N   0  0  0  0  0  0  0  0  0  0  0  0
   -5.9243  -10.8919    0.0000 N   0  0  0  0  0  0  0  0  0  0  0  0
   -7.4161  -10.7351    0.0000 C   0  0  0  0  0  0  0  0  0  0  0  0
   -7.7279   -9.2679    0.0000 C   0  0  0  0  0  0  0  0  0  0  0  0
   -6.4289   -8.5179    0.0000 C   0  0  0  0  0  0  0  0  0  0  0  0
   -6.1170   -7.0506    0.0000 C   0  0  0  0  0  0  0  0  0  0  0  0
   -4.6904   -6.5871    0.0000 C   0  0  0  0  0  0  0  0  0  0  0  0
   -3.5757   -7.5908    0.0000 C   0  0  0  0  0  0  0  0  0  0  0  0
   -3.8876   -9.0580    0.0000 N   0  0  0  0  0  0  0  0  0  0  0  0
   -5.3142   -9.5216    0.0000 C   0  0  0  0  0  0  0  0  0  0  0  0
  -11.6821   -8.9293    0.0000 C   0  0  0  0  0  0  0  0  0  0  0  0
  -11.8389   -7.4375    0.0000 C   0  0  0  0  0  0  0  0  0  0  0  0
  -10.6253   -6.5559    0.0000 N   0  0  0  0  0  0  0  0  0  0  0  0
   -9.2550   -7.1660    0.0000 C   0  0  0  0  0  0  0  0  0  0  0  0
   -9.0982   -8.6578    0.0000 C   0  0  0  0  0  0  0  0  0  0  0  0
  -10.3118   -9.5394    0.0000 C   0  0  0  0  0  0  0  0  0  0  0  0
  -14.2659   -9.2009    0.0000 C   0  0  0  0  0  0  0  0  0  0  0  0
  -12.8956   -9.8110    0.0000 N   0  0  0  0  0  0  0  0  0  0  0  0
  -12.7388  -11.3028    0.0000 C   0  0  0  0  0  0  0  0  0  0  0  0
   -5.1743  -12.1909    0.0000 C   0  0  0  0  0  0  0  0  0  0  0  0
  1  2  2  0
  2  3  1  0
  3  4  1  0
  4  5  2  0
  5  6  1  0
  6  7  2  0
  7  8  1  0
  8  9  2  0
  9  1  1  0
  9  4  1  0
 10 11  1  0
 11 12  1  0
 13 14  1  0
 14 15  2  0
 15 16  1  0
 16 17  2  0
 17 18  1  0
 18 19  2  0
 19 20  1  0
 20 21  2  0
 21 13  1  0
 21 16  1  0
 22 23  2  0
 23 24  1  0
 24 25  2  0
 25 26  1  0
 26 27  2  0
 27 22  1  0
 28 29  1  0
 29 30  1  0
  1 12  1  0
 10 18  1  0
 15 26  1  0
 22 29  1  0
 13 31  1  0
M  END

