
     RDKit          2D

 33 36  0  0  0  0  0  0  0  0999 V2000
   -4.0819   -0.6918    0.0000 C   0  0  0  0  0  0  0  0  0  0  0  0
   -5.5085   -0.2283    0.0000 C   0  0  0  0  0  0  0  0  0  0  0  0
   -6.6232   -1.2320    0.0000 C   0  0  0  0  0  0  0  0  0  0  0  0
   -8.0498   -0.7685    0.0000 O   0  0  0  0  0  0  0  0  0  0  0  0
    1.5000    0.0000    0.0000 C   0  0  0  0  0  0  0  0  0  0  0  0
    0.7500   -1.2990    0.0000 C   0  0  0  0  0  0  0  0  0  0  0  0
   -0.7500   -1.2990    0.0000 C   0  0  0  0  0  0  0  0  0  0  0  0
   -1.5000    0.0000    0.0000 C   0  0  0  0  0  0  0  0  0  0  0  0
   -0.7500    1.2990    0.0000 C   0  0  0  0  0  0  0  0  0  0  0  0
    0.7500    1.2990    0.0000 C   0  0  0  0  0  0  0  0  0  0  0  0
   -1.7537    2.4138    0.0000 C   0  0  0  0  0  0  0  0  0  0  0  0
   -3.1240    1.8037    0.0000 C   0  0  0  0  0  0  0  0  0  0  0  0
   -2.9672    0.3119    0.0000 N   0  0  0  0  0  0  0  0  0  0  0  0
   -1.1554    8.8360    0.0000 C   0  0  0  0  0  0  0  0  0  0  0  0
    0.3119    8.5242    0.0000 N   0  0  0  0  0  0  0  0  0  0  0  0
    0.7754    7.0976    0.0000 C   0  0  0  0  0  0  0  0  0  0  0  0
   -0.2283    5.9829    0.0000 C   0  0  0  0  0  0  0  0  0  0  0  0
   -0.0715    4.4911    0.0000 N   0  0  0  0  0  0  0  0  0  0  0  0
   -1.4418    3.8810    0.0000 C   0  0  0  0  0  0  0  0  0  0  0  0
   -2.4455    4.9957    0.0000 S   0  0  0  0  0  0  0  0  0  0  0  0
   -1.6955    6.2947    0.0000 C   0  0  0  0  0  0  0  0  0  0  0  0
   -2.1590    7.7213    0.0000 N   0  0  0  0  0  0  0  0  0  0  0  0
    2.2426    6.7857    0.0000 C   0  0  0  0  0  0  0  0  0  0  0  0
    3.7098    6.4738    0.0000 N   0  0  0  0  0  0  0  0  0  0  0  0
   -1.6189   10.2626    0.0000 N   0  0  0  0  0  0  0  0  0  0  0  0
   -1.0787   12.8039    0.0000 C   0  0  0  0  0  0  0  0  0  0  0  0
   -0.6152   11.3773    0.0000 C   0  0  0  0  0  0  0  0  0  0  0  0
    0.8520   11.0655    0.0000 C   0  0  0  0  0  0  0  0  0  0  0  0
    6.0000   -2.5981    0.0000 C   0  0  0  0  0  0  0  0  0  0  0  0
    5.2500   -1.2990    0.0000 C   0  0  0  0  0  0  0  0  0  0  0  0
    6.0000    0.0000    0.0000 O   0  0  0  0  0  0  0  0  0  0  0  0
    3.7500   -1.2990    0.0000 N   0  0  0  0  0  0  0  0  0  0  0  0
    3.0000    0.0000    0.0000 C   0  0  0  0  0  0  0  0  0  0  0  0
  1  2  1  0
  2  3  1  0
  3  4  1  0
  5  6  2  0
  6  7  1  0
  7  8  2  0
  8  9  1  0
  9 10  2  0
  9 11  1  0
 11 12  2  0
 12 13  1  0
 10  5  1  0
 13  8  1  0
 14 15  2  0
 15 16  1  0
 16 17  2  0
 17 18  1  0
 18 19  2  0
 19 20  1  0
 20 21  1  0
 21 22  2  0
 22 14  1  0
 21 17  1  0
 23 24  3  0
 26 27  1  0
 27 28  1  0
 29 30  1  0
 30 31  2  0
 30 32  1  0
 32 33  1  0
  1 13  1  0
 11 19  1  0
 16 23  1  0
 14 25  1  0
 25 27  1  0
  5 33  1  0
M  END

