
     RDKit          2D

 28 32  0  0  0  0  0  0  0  0999 V2000
   -2.1470    1.7537    0.0000 C   0  0  0  0  0  0  0  0  0  0  0  0
   -1.8351    3.2209    0.0000 C   0  0  0  0  0  0  0  0  0  0  0  0
   -0.4086    3.6844    0.0000 C   0  0  0  0  0  0  0  0  0  0  0  0
    0.7062    2.6807    0.0000 C   0  0  0  0  0  0  0  0  0  0  0  0
    0.3943    1.2135    0.0000 C   0  0  0  0  0  0  0  0  0  0  0  0
    1.2760    0.0000    0.0000 N   0  0  0  0  0  0  0  0  0  0  0  0
    0.3943   -1.2135    0.0000 N   0  0  0  0  0  0  0  0  0  0  0  0
   -1.0323   -0.7500    0.0000 C   0  0  0  0  0  0  0  0  0  0  0  0
   -1.0323    0.7500    0.0000 C   0  0  0  0  0  0  0  0  0  0  0  0
   -3.5736    1.2902    0.0000 N   0  0  0  0  0  0  0  0  0  0  0  0
   -6.1555    1.9820    0.0000 N   0  0  0  0  0  0  0  0  0  0  0  0
   -4.6883    2.2939    0.0000 C   0  0  0  0  0  0  0  0  0  0  0  0
   -4.5315    3.7856    0.0000 N   0  0  0  0  0  0  0  0  0  0  0  0
   -5.9018    4.3958    0.0000 C   0  0  0  0  0  0  0  0  0  0  0  0
   -6.3654    5.8223    0.0000 C   0  0  0  0  0  0  0  0  0  0  0  0
   -7.8326    6.1342    0.0000 C   0  0  0  0  0  0  0  0  0  0  0  0
   -8.8363    5.0195    0.0000 C   0  0  0  0  0  0  0  0  0  0  0  0
   -8.3727    3.5929    0.0000 C   0  0  0  0  0  0  0  0  0  0  0  0
   -6.9055    3.2810    0.0000 C   0  0  0  0  0  0  0  0  0  0  0  0
   -6.4941   -1.9722    0.0000 C   0  0  0  0  0  0  0  0  0  0  0  0
   -7.9858   -2.1290    0.0000 N   0  0  0  0  0  0  0  0  0  0  0  0
   -8.8675   -0.9154    0.0000 C   0  0  0  0  0  0  0  0  0  0  0  0
   -8.2574    0.4549    0.0000 N   0  0  0  0  0  0  0  0  0  0  0  0
   -6.7656    0.6117    0.0000 C   0  0  0  0  0  0  0  0  0  0  0  0
   -5.8840   -0.6018    0.0000 N   0  0  0  0  0  0  0  0  0  0  0  0
  -10.3593   -1.0722    0.0000 N   0  0  0  0  0  0  0  0  0  0  0  0
   -6.2225   -4.5560    0.0000 N   0  0  0  0  0  0  0  0  0  0  0  0
   -5.6124   -3.1857    0.0000 C   0  0  0  0  0  0  0  0  0  0  0  0
  1  2  2  0
  2  3  1  0
  3  4  2  0
  4  5  1  0
  5  6  1  0
  6  7  1  0
  7  8  2  0
  8  9  1  0
  9  1  1  0
  9  5  2  0
 11 12  1  0
 12 13  2  0
 13 14  1  0
 14 15  2  0
 15 16  1  0
 16 17  2  0
 17 18  1  0
 18 19  2  0
 19 11  1  0
 19 14  1  0
 20 21  2  0
 21 22  1  0
 22 23  2  0
 23 24  1  0
 24 25  2  0
 25 20  1  0
 27 28  1  0
  1 10  1  0
 10 12  1  0
 11 24  1  0
 22 26  1  0
 20 28  1  0
M  END

