
     RDKit          2D

 49 54  0  0  0  0  0  0  0  0999 V2000
   12.2195    6.5205    0.0000 F   0  0  0  0  0  0  0  0  0  0  0  0
   13.5196    9.6789    0.0000 N   0  0  0  0  0  0  0  0  0  0  0  0
   15.0187    9.7313    0.0000 C   0  0  0  0  0  0  0  0  0  0  0  0
   15.8136    8.4592    0.0000 C   0  0  0  0  0  0  0  0  0  0  0  0
   15.1094    7.1348    0.0000 C   0  0  0  0  0  0  0  0  0  0  0  0
   13.6103    7.0824    0.0000 C   0  0  0  0  0  0  0  0  0  0  0  0
   12.8154    8.3545    0.0000 C   0  0  0  0  0  0  0  0  0  0  0  0
   16.4635    6.1554    0.0000 C   0  0  0  0  0  0  0  0  0  0  0  0
   15.3487    5.1517    0.0000 C   0  0  0  0  0  0  0  0  0  0  0  0
   13.9222    5.6152    0.0000 C   0  0  0  0  0  0  0  0  0  0  0  0
   12.8074    4.6115    0.0000 C   0  0  0  0  0  0  0  0  0  0  0  0
   10.2661    4.0713    0.0000 C   0  0  0  0  0  0  0  0  0  0  0  0
   11.3809    5.0750    0.0000 C   0  0  0  0  0  0  0  0  0  0  0  0
    7.6260    2.1532    0.0000 O   0  0  0  0  0  0  0  0  0  0  0  0
    7.6260    3.6532    0.0000 C   0  0  0  0  0  0  0  0  0  0  0  0
    8.8396    4.5348    0.0000 N   0  0  0  0  0  0  0  0  0  0  0  0
    8.3760    5.9614    0.0000 C   0  0  0  0  0  0  0  0  0  0  0  0
    6.8760    5.9614    0.0000 C   0  0  0  0  0  0  0  0  0  0  0  0
    6.4125    4.5348    0.0000 N   0  0  0  0  0  0  0  0  0  0  0  0
    3.6209    8.2317    0.0000 C   0  0  0  0  0  0  0  0  0  0  0  0
    4.2310    9.6020    0.0000 C   0  0  0  0  0  0  0  0  0  0  0  0
    5.7228    9.7588    0.0000 C   0  0  0  0  0  0  0  0  0  0  0  0
    6.6045    8.5453    0.0000 C   0  0  0  0  0  0  0  0  0  0  0  0
    5.9944    7.1750    0.0000 C   0  0  0  0  0  0  0  0  0  0  0  0
    4.5026    7.0182    0.0000 C   0  0  0  0  0  0  0  0  0  0  0  0
    8.0962    8.7021    0.0000 F   0  0  0  0  0  0  0  0  0  0  0  0
    0.6373    7.9181    0.0000 F   0  0  0  0  0  0  0  0  0  0  0  0
    2.1291    8.0749    0.0000 C   0  0  0  0  0  0  0  0  0  0  0  0
    1.9723    9.5667    0.0000 F   0  0  0  0  0  0  0  0  0  0  0  0
    2.2859    6.5831    0.0000 F   0  0  0  0  0  0  0  0  0  0  0  0
    2.1328    3.1443    0.0000 N   0  0  0  0  0  0  0  0  0  0  0  0
    3.2475    2.1406    0.0000 C   0  0  0  0  0  0  0  0  0  0  0  0
    4.6741    2.6041    0.0000 C   0  0  0  0  0  0  0  0  0  0  0  0
    4.9859    4.0713    0.0000 C   0  0  0  0  0  0  0  0  0  0  0  0
    3.8712    5.0750    0.0000 C   0  0  0  0  0  0  0  0  0  0  0  0
    2.4446    4.6115    0.0000 C   0  0  0  0  0  0  0  0  0  0  0  0
    0.7062    2.6807    0.0000 C   0  0  0  0  0  0  0  0  0  0  0  0
   -0.4086    3.6844    0.0000 N   0  0  0  0  0  0  0  0  0  0  0  0
   -1.8351    3.2209    0.0000 C   0  0  0  0  0  0  0  0  0  0  0  0
   -2.1470    1.7537    0.0000 N   0  0  0  0  0  0  0  0  0  0  0  0
   -1.0323    0.7500    0.0000 C   0  0  0  0  0  0  0  0  0  0  0  0
    0.3943    1.2135    0.0000 C   0  0  0  0  0  0  0  0  0  0  0  0
    1.2760    0.0000    0.0000 C   0  0  0  0  0  0  0  0  0  0  0  0
    0.3943   -1.2135    0.0000 S   0  0  0  0  0  0  0  0  0  0  0  0
   -1.0323   -0.7500    0.0000 C   0  0  0  0  0  0  0  0  0  0  0  0
   13.1193    3.1443    0.0000 N   0  0  0  0  0  0  0  0  0  0  0  0
   12.6341   13.5475    0.0000 C   0  0  0  0  0  0  0  0  0  0  0  0
   13.4289   12.2754    0.0000 C   0  0  0  0  0  0  0  0  0  0  0  0
   12.7247   10.9510    0.0000 N   0  0  0  0  0  0  0  0  0  0  0  0
  2  3  1  0
  3  4  1  0
  4  5  1  0
  5  6  1  0
  6  7  1  0
  7  2  1  0
  8  9  1  0
  9 10  1  0
 10 11  2  0
 12 13  1  0
 14 15  2  0
 15 16  1  0
 16 17  1  0
 17 18  2  0
 18 19  1  0
 19 15  1  0
 20 21  2  0
 21 22  1  0
 22 23  2  0
 23 24  1  0
 24 25  2  0
 25 20  1  0
 27 28  1  0
 28 29  1  0
 28 30  1  0
 31 32  1  0
 32 33  1  0
 33 34  1  0
 34 35  1  0
 35 36  1  0
 36 31  1  0
 37 38  2  0
 38 39  1  0
 39 40  2  0
 40 41  1  0
 41 42  2  0
 42 43  1  0
 43 44  1  0
 44 45  1  0
 42 37  1  0
 45 41  1  0
 47 48  1  0
 48 49  1  0
  1  6  1  0
  6 10  1  0
 11 13  1  0
 12 16  1  0
 18 24  1  0
 23 26  1  0
 20 28  1  0
 19 34  1  0
 31 37  1  0
 11 46  1  0
  2 49  1  0
M  END

