
     RDKit          2D

 34 38  0  0  0  0  0  0  0  0999 V2000
    6.7500    3.8971    0.0000 F   0  0  0  0  0  0  0  0  0  0  0  0
    5.2500    3.8971    0.0000 C   0  0  0  0  0  0  0  0  0  0  0  0
    5.2500    5.3971    0.0000 F   0  0  0  0  0  0  0  0  0  0  0  0
    5.2500    2.3971    0.0000 F   0  0  0  0  0  0  0  0  0  0  0  0
    3.7500    3.8971    0.0000 C   0  0  0  0  0  0  0  0  0  0  0  0
    3.0000    2.5981    0.0000 O   0  0  0  0  0  0  0  0  0  0  0  0
    0.7500   -1.2990    0.0000 C   0  0  0  0  0  0  0  0  0  0  0  0
   -0.7500   -1.2990    0.0000 C   0  0  0  0  0  0  0  0  0  0  0  0
   -1.5000    0.0000    0.0000 N   0  0  0  0  0  0  0  0  0  0  0  0
   -0.7500    1.2990    0.0000 C   0  0  0  0  0  0  0  0  0  0  0  0
   -1.5000    2.5981    0.0000 C   0  0  0  0  0  0  0  0  0  0  0  0
   -0.7500    3.8971    0.0000 C   0  0  0  0  0  0  0  0  0  0  0  0
    0.7500    3.8971    0.0000 C   0  0  0  0  0  0  0  0  0  0  0  0
    1.5000    2.5981    0.0000 C   0  0  0  0  0  0  0  0  0  0  0  0
    0.7500    1.2990    0.0000 C   0  0  0  0  0  0  0  0  0  0  0  0
    1.5000   -0.0000    0.0000 C   0  0  0  0  0  0  0  0  0  0  0  0
    3.9271   -2.5981    0.0000 C   0  0  0  0  0  0  0  0  0  0  0  0
    3.4635   -4.0247    0.0000 C   0  0  0  0  0  0  0  0  0  0  0  0
    1.9635   -4.0247    0.0000 O   0  0  0  0  0  0  0  0  0  0  0  0
    1.5000   -2.5981    0.0000 C   0  0  0  0  0  0  0  0  0  0  0  0
    2.7135   -1.7164    0.0000 O   0  0  0  0  0  0  0  0  0  0  0  0
   -3.6677   -2.0549    0.0000 O   0  0  0  0  0  0  0  0  0  0  0  0
   -2.4542   -2.9366    0.0000 C   0  0  0  0  0  0  0  0  0  0  0  0
   -1.0838   -2.3265    0.0000 C   0  0  0  0  0  0  0  0  0  0  0  0
    0.1297   -3.2082    0.0000 C   0  0  0  0  0  0  0  0  0  0  0  0
   -0.0271   -4.7000    0.0000 N   0  0  0  0  0  0  0  0  0  0  0  0
   -1.3974   -5.3101    0.0000 C   0  0  0  0  0  0  0  0  0  0  0  0
   -2.6110   -4.4284    0.0000 N   0  0  0  0  0  0  0  0  0  0  0  0
   -0.4975   -9.1753    0.0000 C   0  0  0  0  0  0  0  0  0  0  0  0
   -1.8678   -9.7854    0.0000 C   0  0  0  0  0  0  0  0  0  0  0  0
   -3.0813   -8.9037    0.0000 C   0  0  0  0  0  0  0  0  0  0  0  0
   -2.9245   -7.4120    0.0000 C   0  0  0  0  0  0  0  0  0  0  0  0
   -1.5542   -6.8019    0.0000 N   0  0  0  0  0  0  0  0  0  0  0  0
   -0.3407   -7.6835    0.0000 C   0  0  0  0  0  0  0  0  0  0  0  0
  1  2  1  0
  2  3  1  0
  2  4  1  0
  2  5  1  0
  5  6  1  0
  7  8  1  0
  8  9  1  0
  9 10  1  0
 10 11  2  0
 11 12  1  0
 12 13  2  0
 13 14  1  0
 14 15  2  0
 15 16  1  0
 16  7  1  0
 15 10  1  0
 17 18  1  6
 18 19  1  0
 19 20  1  0
 20 21  1  0
 21 17  1  0
 22 23  2  0
 23 24  1  0
 24 25  2  0
 25 26  1  0
 26 27  2  0
 27 28  1  0
 28 23  1  0
 29 30  1  0
 30 31  1  0
 31 32  1  0
 32 33  1  0
 33 34  1  0
 34 29  1  0
  6 14  1  0
 20  7  1  1
 20 25  1  0
 27 33  1  0
M  END

