
     RDKit          2D

 34 37  0  0  0  0  0  0  0  0999 V2000
   -1.5000    5.1962    0.0000 Br  0  0  0  0  0  0  0  0  0  0  0  0
   -0.7500    3.8971    0.0000 C   0  0  0  0  0  0  0  0  0  0  0  0
   -1.5000    2.5981    0.0000 C   0  0  0  0  0  0  0  0  0  0  0  0
    0.7500   -1.2990    0.0000 C   0  0  0  0  0  0  0  0  0  0  0  0
    1.5000    0.0000    0.0000 C   0  0  0  0  0  0  0  0  0  0  0  0
    0.7500    1.2990    0.0000 C   0  0  0  0  0  0  0  0  0  0  0  0
   -0.7500    1.2990    0.0000 C   0  0  0  0  0  0  0  0  0  0  0  0
   -1.5000    0.0000    0.0000 C   0  0  0  0  0  0  0  0  0  0  0  0
   -0.7500   -1.2990    0.0000 C   0  0  0  0  0  0  0  0  0  0  0  0
    3.0000   -5.1962    0.0000 C   0  0  0  0  0  0  0  0  0  0  0  0
    3.7500   -3.8971    0.0000 C   0  0  0  0  0  0  0  0  0  0  0  0
    3.0000   -2.5981    0.0000 C   0  0  0  0  0  0  0  0  0  0  0  0
    1.5000   -2.5981    0.0000 C   0  0  0  0  0  0  0  0  0  0  0  0
    0.7500   -3.8971    0.0000 C   0  0  0  0  0  0  0  0  0  0  0  0
    1.5000   -5.1962    0.0000 C   0  0  0  0  0  0  0  0  0  0  0  0
    5.2418   -6.6520    0.0000 N   0  0  0  0  0  0  0  0  0  0  0  0
    5.5537   -8.1192    0.0000 N   0  0  0  0  0  0  0  0  0  0  0  0
    4.2546   -8.8692    0.0000 C   0  0  0  0  0  0  0  0  0  0  0  0
    3.1399   -7.8655    0.0000 C   0  0  0  0  0  0  0  0  0  0  0  0
    3.7500   -6.4952    0.0000 C   0  0  0  0  0  0  0  0  0  0  0  0
    3.9410  -11.8528    0.0000 F   0  0  0  0  0  0  0  0  0  0  0  0
    4.0978  -10.3610    0.0000 C   0  0  0  0  0  0  0  0  0  0  0  0
    2.6060  -10.2042    0.0000 F   0  0  0  0  0  0  0  0  0  0  0  0
    5.5896  -10.5178    0.0000 F   0  0  0  0  0  0  0  0  0  0  0  0
    8.2529   -3.3078    0.0000 C   0  0  0  0  0  0  0  0  0  0  0  0
    8.7164   -4.7344    0.0000 C   0  0  0  0  0  0  0  0  0  0  0  0
    7.7127   -5.8491    0.0000 C   0  0  0  0  0  0  0  0  0  0  0  0
    6.2455   -5.5373    0.0000 C   0  0  0  0  0  0  0  0  0  0  0  0
    5.7820   -4.1107    0.0000 C   0  0  0  0  0  0  0  0  0  0  0  0
    6.7856   -2.9960    0.0000 C   0  0  0  0  0  0  0  0  0  0  0  0
   10.2603   -1.0784    0.0000 N   0  0  0  0  0  0  0  0  0  0  0  0
    9.2566   -2.1931    0.0000 S   0  0  0  0  0  0  0  0  0  0  0  0
   10.3713   -3.1968    0.0000 O   0  0  0  0  0  0  0  0  0  0  0  0
    8.1418   -1.1894    0.0000 O   0  0  0  0  0  0  0  0  0  0  0  0
  1  2  1  0
  2  3  1  0
  4  5  2  0
  5  6  1  0
  6  7  2  0
  7  8  1  0
  8  9  2  0
  9  4  1  0
 10 11  2  0
 11 12  1  0
 12 13  2  0
 13 14  1  0
 14 15  2  0
 15 10  1  0
 16 17  1  0
 17 18  2  0
 18 19  1  0
 19 20  2  0
 20 16  1  0
 21 22  1  0
 22 23  1  0
 22 24  1  0
 25 26  2  0
 26 27  1  0
 27 28  2  0
 28 29  1  0
 29 30  2  0
 30 25  1  0
 31 32  1  0
 32 33  2  0
 32 34  2  0
  3  7  1  0
  4 13  1  0
 10 20  1  0
 18 22  1  0
 16 28  1  0
 25 32  1  0
M  END

