
     RDKit          2D

 37 41  0  0  0  0  0  0  0  0999 V2000
   -6.1717    3.2098    0.0000 F   0  0  0  0  0  0  0  0  0  0  0  0
   -8.5854   -1.5439    0.0000 N   0  0  0  0  0  0  0  0  0  0  0  0
   -7.9753   -2.9142    0.0000 C   0  0  0  0  0  0  0  0  0  0  0  0
   -6.4835   -2.7574    0.0000 C   0  0  0  0  0  0  0  0  0  0  0  0
   -6.1717   -1.2902    0.0000 C   0  0  0  0  0  0  0  0  0  0  0  0
   -4.8726   -0.5402    0.0000 C   0  0  0  0  0  0  0  0  0  0  0  0
   -4.8726    0.9598    0.0000 C   0  0  0  0  0  0  0  0  0  0  0  0
   -6.1717    1.7098    0.0000 C   0  0  0  0  0  0  0  0  0  0  0  0
   -7.4707    0.9598    0.0000 C   0  0  0  0  0  0  0  0  0  0  0  0
   -7.4707   -0.5402    0.0000 C   0  0  0  0  0  0  0  0  0  0  0  0
   -3.5736   -3.7172    0.0000 C   0  0  0  0  0  0  0  0  0  0  0  0
   -2.1470   -3.2537    0.0000 C   0  0  0  0  0  0  0  0  0  0  0  0
   -2.1470   -1.7537    0.0000 O   0  0  0  0  0  0  0  0  0  0  0  0
   -3.5736   -1.2902    0.0000 C   0  0  0  0  0  0  0  0  0  0  0  0
   -4.4553   -2.5037    0.0000 O   0  0  0  0  0  0  0  0  0  0  0  0
   -1.6531    4.8674    0.0000 C   0  0  0  0  0  0  0  0  0  0  0  0
   -0.2827    4.2573    0.0000 N   0  0  0  0  0  0  0  0  0  0  0  0
   -0.1259    2.7655    0.0000 C   0  0  0  0  0  0  0  0  0  0  0  0
   -1.3395    1.8838    0.0000 C   0  0  0  0  0  0  0  0  0  0  0  0
   -1.4963    0.3920    0.0000 N   0  0  0  0  0  0  0  0  0  0  0  0
   -2.9635    0.0801    0.0000 C   0  0  0  0  0  0  0  0  0  0  0  0
   -3.7135    1.3792    0.0000 N   0  0  0  0  0  0  0  0  0  0  0  0
   -2.7098    2.4939    0.0000 C   0  0  0  0  0  0  0  0  0  0  0  0
   -2.8666    3.9857    0.0000 N   0  0  0  0  0  0  0  0  0  0  0  0
    8.9959    2.9701    0.0000 F   0  0  0  0  0  0  0  0  0  0  0  0
    7.6256    3.5802    0.0000 C   0  0  0  0  0  0  0  0  0  0  0  0
    6.4121    2.6985    0.0000 C   0  0  0  0  0  0  0  0  0  0  0  0
    5.0417    3.3086    0.0000 O   0  0  0  0  0  0  0  0  0  0  0  0
    3.8282    2.4269    0.0000 C   0  0  0  0  0  0  0  0  0  0  0  0
    2.4579    3.0370    0.0000 C   0  0  0  0  0  0  0  0  0  0  0  0
    1.2444    2.1554    0.0000 O   0  0  0  0  0  0  0  0  0  0  0  0
   -4.8641   10.5629    0.0000 C   0  0  0  0  0  0  0  0  0  0  0  0
   -4.7073    9.0711    0.0000 O   0  0  0  0  0  0  0  0  0  0  0  0
   -3.3370    8.4610    0.0000 C   0  0  0  0  0  0  0  0  0  0  0  0
   -3.1802    6.9693    0.0000 C   0  0  0  0  0  0  0  0  0  0  0  0
   -1.8098    6.3591    0.0000 N   0  0  0  0  0  0  0  0  0  0  0  0
   -0.5963    7.2408    0.0000 C   0  0  0  0  0  0  0  0  0  0  0  0
  2  3  1  0
  3  4  1  0
  4  5  1  0
  5  6  2  0
  6  7  1  0
  7  8  2  0
  8  9  1  0
  9 10  2  0
 10  2  1  0
 10  5  1  0
 11 12  1  6
 12 13  1  0
 13 14  1  0
 14 15  1  0
 15 11  1  0
 16 17  2  0
 17 18  1  0
 18 19  2  0
 19 20  1  0
 20 21  2  0
 21 22  1  0
 22 23  1  0
 23 24  2  0
 24 16  1  0
 23 19  1  0
 25 26  1  0
 26 27  1  0
 27 28  1  0
 28 29  1  0
 29 30  1  0
 30 31  1  0
 32 33  1  0
 33 34  1  0
 34 35  1  0
 35 36  1  0
 36 37  1  0
  1  8  1  0
 14  6  1  6
 14 21  1  0
 18 31  1  0
 16 36  1  0
M  ISO  1   1  18
M  END

