
     RDKit          2D

 33 38  0  0  0  0  0  0  0  0999 V2000
    1.5090   -0.2098    0.0000 Cl  0  0  0  0  0  0  0  0  0  0  0  0
   -0.4086   -5.1844    0.0000 N   0  0  0  0  0  0  0  0  0  0  0  0
   -1.8351   -5.6480    0.0000 C   0  0  0  0  0  0  0  0  0  0  0  0
   -2.7168   -4.4344    0.0000 C   0  0  0  0  0  0  0  0  0  0  0  0
   -1.8351   -3.2209    0.0000 C   0  0  0  0  0  0  0  0  0  0  0  0
   -2.1470   -1.7537    0.0000 C   0  0  0  0  0  0  0  0  0  0  0  0
   -1.0323   -0.7500    0.0000 C   0  0  0  0  0  0  0  0  0  0  0  0
    0.3943   -1.2135    0.0000 C   0  0  0  0  0  0  0  0  0  0  0  0
    0.7062   -2.6807    0.0000 C   0  0  0  0  0  0  0  0  0  0  0  0
   -0.4086   -3.6844    0.0000 C   0  0  0  0  0  0  0  0  0  0  0  0
   -5.3772   -2.9142    0.0000 C   0  0  0  0  0  0  0  0  0  0  0  0
   -5.9873   -1.5439    0.0000 C   0  0  0  0  0  0  0  0  0  0  0  0
   -4.8726   -0.5402    0.0000 O   0  0  0  0  0  0  0  0  0  0  0  0
   -3.5736   -1.2902    0.0000 C   0  0  0  0  0  0  0  0  0  0  0  0
   -3.8855   -2.7574    0.0000 O   0  0  0  0  0  0  0  0  0  0  0  0
    0.6302    1.7641    0.0000 O   0  0  0  0  0  0  0  0  0  0  0  0
   -0.8616    1.6073    0.0000 C   0  0  0  0  0  0  0  0  0  0  0  0
   -1.4717    0.2369    0.0000 C   0  0  0  0  0  0  0  0  0  0  0  0
   -2.9635    0.0801    0.0000 C   0  0  0  0  0  0  0  0  0  0  0  0
   -3.8452    1.2937    0.0000 N   0  0  0  0  0  0  0  0  0  0  0  0
   -3.2351    2.6640    0.0000 C   0  0  0  0  0  0  0  0  0  0  0  0
   -1.7433    2.8208    0.0000 N   0  0  0  0  0  0  0  0  0  0  0  0
   -3.2433    2.8208    0.0000 N   0  0  0  0  0  0  0  0  0  0  0  0
   -2.6332    4.1911    0.0000 C   0  0  0  0  0  0  0  0  0  0  0  0
   -3.6532    5.3041    0.0000 C   0  0  0  0  0  0  0  0  0  0  0  0
   -4.8667    6.1858    0.0000 C   0  0  0  0  0  0  0  0  0  0  0  0
   -6.0803    5.3041    0.0000 C   0  0  0  0  0  0  0  0  0  0  0  0
   -5.6167    3.8775    0.0000 C   0  0  0  0  0  0  0  0  0  0  0  0
   -4.7351    2.6640    0.0000 C   0  0  0  0  0  0  0  0  0  0  0  0
   -4.1167    3.8775    0.0000 N   0  0  0  0  0  0  0  0  0  0  0  0
   -1.8226   -0.7272    0.0000 O   0  0  0  0  0  0  0  0  0  0  0  0
   -2.9717    0.2369    0.0000 C   0  0  0  0  0  0  0  0  0  0  0  0
   -2.3616    1.6073    0.0000 C   0  0  0  0  0  0  0  0  0  0  0  0
  2  3  1  0
  3  4  1  0
  4  5  1  0
  5  6  2  0
  6  7  1  0
  7  8  2  0
  8  9  1  0
  9 10  2  0
 10  2  1  0
 10  5  1  0
 11 12  1  6
 12 13  1  0
 13 14  1  0
 14 15  1  0
 15 11  1  0
 16 17  2  0
 17 18  1  0
 18 19  2  0
 19 20  1  0
 20 21  2  0
 21 22  1  0
 22 17  1  0
 23 24  1  0
 24 25  1  0
 25 26  1  0
 26 27  1  0
 27 28  1  0
 28 29  1  0
 28 30  1  0
 29 23  1  0
 30 25  1  0
 31 32  1  0
 32 33  1  0
  1  8  1  0
 14  6  1  1
 14 19  1  0
 21 30  1  0
 23 33  1  0
M  END

