
     RDKit          2D

 36 41  0  0  0  0  0  0  0  0999 V2000
   -3.1629    2.8794    0.0000 O   0  0  0  0  0  0  0  0  0  0  0  0
   -3.4748    1.4122    0.0000 C   0  0  0  0  0  0  0  0  0  0  0  0
   -2.3601    0.4085    0.0000 C   0  0  0  0  0  0  0  0  0  0  0  0
   -0.8637    0.5130    0.0000 O   0  0  0  0  0  0  0  0  0  0  0  0
   -6.1149    1.8303    0.0000 C   0  0  0  0  0  0  0  0  0  0  0  0
   -7.3284    0.9487    0.0000 C   0  0  0  0  0  0  0  0  0  0  0  0
   -6.8649   -0.4779    0.0000 C   0  0  0  0  0  0  0  0  0  0  0  0
   -5.3649   -0.4779    0.0000 C   0  0  0  0  0  0  0  0  0  0  0  0
   -3.8855   -0.1771    0.0000 C   0  0  0  0  0  0  0  0  0  0  0  0
   -3.5736    1.2902    0.0000 C   0  0  0  0  0  0  0  0  0  0  0  0
   -4.6883    2.2939    0.0000 C   0  0  0  0  0  0  0  0  0  0  0  0
   -4.9014    0.9487    0.0000 N   0  0  0  0  0  0  0  0  0  0  0  0
   -0.4086    3.6844    0.0000 C   0  0  0  0  0  0  0  0  0  0  0  0
    0.7062    2.6807    0.0000 C   0  0  0  0  0  0  0  0  0  0  0  0
    0.3943    1.2135    0.0000 N   0  0  0  0  0  0  0  0  0  0  0  0
    1.2760    0.0000    0.0000 C   0  0  0  0  0  0  0  0  0  0  0  0
    0.3943   -1.2135    0.0000 C   0  0  0  0  0  0  0  0  0  0  0  0
   -1.0323   -0.7500    0.0000 N   0  0  0  0  0  0  0  0  0  0  0  0
   -1.0323    0.7500    0.0000 C   0  0  0  0  0  0  0  0  0  0  0  0
   -2.1470    1.7537    0.0000 C   0  0  0  0  0  0  0  0  0  0  0  0
   -1.8351    3.2209    0.0000 N   0  0  0  0  0  0  0  0  0  0  0  0
    4.2760   -2.5981    0.0000 N   0  0  0  0  0  0  0  0  0  0  0  0
    3.5260   -1.2990    0.0000 C   0  0  0  0  0  0  0  0  0  0  0  0
    2.7760    0.0000    0.0000 C   0  0  0  0  0  0  0  0  0  0  0  0
    0.5271    8.0861    0.0000 C   0  0  0  0  0  0  0  0  0  0  0  0
   -0.8995    7.6226    0.0000 C   0  0  0  0  0  0  0  0  0  0  0  0
   -1.2114    6.1554    0.0000 C   0  0  0  0  0  0  0  0  0  0  0  0
   -0.0967    5.1517    0.0000 C   0  0  0  0  0  0  0  0  0  0  0  0
    1.3299    5.6152    0.0000 N   0  0  0  0  0  0  0  0  0  0  0  0
    1.6418    7.0824    0.0000 C   0  0  0  0  0  0  0  0  0  0  0  0
    0.8389    9.5533    0.0000 C   0  0  0  0  0  0  0  0  0  0  0  0
   -0.1648   10.6680    0.0000 N   0  0  0  0  0  0  0  0  0  0  0  0
    0.5852   11.9671    0.0000 C   0  0  0  0  0  0  0  0  0  0  0  0
    2.0524   11.6552    0.0000 C   0  0  0  0  0  0  0  0  0  0  0  0
    2.2092   10.1634    0.0000 N   0  0  0  0  0  0  0  0  0  0  0  0
   -6.1149    3.3303    0.0000 C   0  0  0  0  0  0  0  0  0  0  0  0
  1  2  2  0
  2  3  1  0
  3  4  1  0
  5  6  1  0
  6  7  1  0
  8  7  1  6
  8  9  1  0
  9 10  1  0
 10 11  1  0
  8 12  1  0
 11  5  1  0
 12  5  1  0
 13 14  2  0
 14 15  1  0
 15 16  1  0
 16 17  2  0
 17 18  1  0
 18 19  2  0
 19 20  1  0
 20 21  2  0
 21 13  1  0
 19 15  1  0
 22 23  3  0
 23 24  1  0
 25 26  2  0
 26 27  1  0
 27 28  2  0
 28 29  1  0
 29 30  2  0
 30 25  1  0
 31 32  2  0
 32 33  1  0
 33 34  2  0
 34 35  1  0
 35 31  1  0
  2 12  1  0
 10 20  1  6
 16 24  1  0
 13 28  1  0
 25 31  1  0
  5 36  1  6
M  END

