
     RDKit          2D

 36 40  0  0  0  0  0  0  0  0999 V2000
   -6.0000   -5.1962    0.0000 C   0  0  0  0  0  0  0  0  0  0  0  0
   -5.2500   -3.8971    0.0000 C   0  0  0  0  0  0  0  0  0  0  0  0
   -3.7500   -3.8971    0.0000 N   0  0  0  0  0  0  0  0  0  0  0  0
   -3.0000   -5.1962    0.0000 C   0  0  0  0  0  0  0  0  0  0  0  0
   -3.7500   -6.4952    0.0000 C   0  0  0  0  0  0  0  0  0  0  0  0
   -1.5000   -2.5981    0.0000 N   0  0  0  0  0  0  0  0  0  0  0  0
   -3.0000   -2.5981    0.0000 C   0  0  0  0  0  0  0  0  0  0  0  0
    0.7500   -1.2990    0.0000 C   0  0  0  0  0  0  0  0  0  0  0  0
    1.5000    0.0000    0.0000 C   0  0  0  0  0  0  0  0  0  0  0  0
    0.7500    1.2990    0.0000 C   0  0  0  0  0  0  0  0  0  0  0  0
   -0.7500    1.2990    0.0000 C   0  0  0  0  0  0  0  0  0  0  0  0
   -1.5000    0.0000    0.0000 C   0  0  0  0  0  0  0  0  0  0  0  0
   -0.7500   -1.2990    0.0000 C   0  0  0  0  0  0  0  0  0  0  0  0
    1.5000    5.1962    0.0000 C   0  0  0  0  0  0  0  0  0  0  0  0
    3.0000    5.1962    0.0000 C   0  0  0  0  0  0  0  0  0  0  0  0
    3.7500    3.8971    0.0000 C   0  0  0  0  0  0  0  0  0  0  0  0
    3.0000    2.5981    0.0000 C   0  0  0  0  0  0  0  0  0  0  0  0
    1.5000    2.5981    0.0000 C   0  0  0  0  0  0  0  0  0  0  0  0
    0.7500    3.8971    0.0000 C   0  0  0  0  0  0  0  0  0  0  0  0
    0.7500    6.4952    0.0000 Cl  0  0  0  0  0  0  0  0  0  0  0  0
    3.8740   -3.1027    0.0000 N   0  0  0  0  0  0  0  0  0  0  0  0
    3.1240   -4.4017    0.0000 C   0  0  0  0  0  0  0  0  0  0  0  0
    1.6568   -4.0899    0.0000 C   0  0  0  0  0  0  0  0  0  0  0  0
    0.2865   -3.4798    0.0000 C   0  0  0  0  0  0  0  0  0  0  0  0
    1.5000   -2.5981    0.0000 C   0  0  0  0  0  0  0  0  0  0  0  0
    2.8703   -1.9880    0.0000 C   0  0  0  0  0  0  0  0  0  0  0  0
    7.7398   -3.4505    0.0000 C   0  0  0  0  0  0  0  0  0  0  0  0
    7.5830   -1.9587    0.0000 C   0  0  0  0  0  0  0  0  0  0  0  0
    6.1158   -1.6469    0.0000 N   0  0  0  0  0  0  0  0  0  0  0  0
    5.3658   -2.9459    0.0000 N   0  0  0  0  0  0  0  0  0  0  0  0
    6.3695   -4.0606    0.0000 C   0  0  0  0  0  0  0  0  0  0  0  0
    6.0576   -5.5278    0.0000 N   0  0  0  0  0  0  0  0  0  0  0  0
   11.6369   -7.2005    0.0000 N   0  0  0  0  0  0  0  0  0  0  0  0
   10.3379   -6.4505    0.0000 C   0  0  0  0  0  0  0  0  0  0  0  0
    9.0388   -5.7005    0.0000 C   0  0  0  0  0  0  0  0  0  0  0  0
    9.0388   -4.2005    0.0000 C   0  0  0  0  0  0  0  0  0  0  0  0
  1  2  1  0
  2  3  1  0
  3  4  1  0
  4  5  1  0
  6  7  1  0
  8  9  2  0
  9 10  1  0
 10 11  2  0
 11 12  1  0
 12 13  2  0
 13  8  1  0
 14 15  2  0
 15 16  1  0
 16 17  2  0
 17 18  1  0
 18 19  2  0
 19 14  1  0
 21 22  1  0
 23 22  1  1
 23 24  1  0
 24 25  1  0
 25 26  1  0
 26 21  1  0
 25 23  1  0
 27 28  1  0
 28 29  2  0
 29 30  1  0
 30 31  1  0
 31 27  2  0
 33 34  3  0
 34 35  1  0
 35 36  1  0
  3  7  1  0
  6 13  1  0
 10 18  1  0
 14 20  1  0
 25  8  1  6
 21 30  1  0
 31 32  1  0
 27 36  1  0
M  END

