
     RDKit          2D

 27 31  0  0  0  0  0  0  0  0999 V2000
   -2.1470    1.7537    0.0000 C   0  0  0  0  0  0  0  0  0  0  0  0
   -1.8351    3.2209    0.0000 C   0  0  0  0  0  0  0  0  0  0  0  0
   -0.4086    3.6844    0.0000 C   0  0  0  0  0  0  0  0  0  0  0  0
    0.7062    2.6807    0.0000 N   0  0  0  0  0  0  0  0  0  0  0  0
    0.3943    1.2135    0.0000 C   0  0  0  0  0  0  0  0  0  0  0  0
    1.2760    0.0000    0.0000 N   0  0  0  0  0  0  0  0  0  0  0  0
    0.3943   -1.2135    0.0000 C   0  0  0  0  0  0  0  0  0  0  0  0
   -1.0323   -0.7500    0.0000 C   0  0  0  0  0  0  0  0  0  0  0  0
   -1.0323    0.7500    0.0000 C   0  0  0  0  0  0  0  0  0  0  0  0
   -5.5371   -0.1364    0.0000 C   0  0  0  0  0  0  0  0  0  0  0  0
   -6.0006    1.2902    0.0000 C   0  0  0  0  0  0  0  0  0  0  0  0
   -4.7871    2.1718    0.0000 C   0  0  0  0  0  0  0  0  0  0  0  0
   -3.5736    1.2902    0.0000 C   0  0  0  0  0  0  0  0  0  0  0  0
   -4.0371   -0.1364    0.0000 S   0  0  0  0  0  0  0  0  0  0  0  0
   -4.7871    3.6718    0.0000 Br  0  0  0  0  0  0  0  0  0  0  0  0
   -8.7923   -2.4067    0.0000 C   0  0  0  0  0  0  0  0  0  0  0  0
   -8.1821   -3.7770    0.0000 N   0  0  0  0  0  0  0  0  0  0  0  0
   -6.6904   -3.9338    0.0000 C   0  0  0  0  0  0  0  0  0  0  0  0
   -5.8087   -2.7203    0.0000 C   0  0  0  0  0  0  0  0  0  0  0  0
   -6.4188   -1.3499    0.0000 C   0  0  0  0  0  0  0  0  0  0  0  0
   -7.9106   -1.1931    0.0000 N   0  0  0  0  0  0  0  0  0  0  0  0
  -10.2840   -2.2499    0.0000 C   0  0  0  0  0  0  0  0  0  0  0  0
  -10.8941   -0.8796    0.0000 C   0  0  0  0  0  0  0  0  0  0  0  0
  -12.3859   -0.7228    0.0000 N   0  0  0  0  0  0  0  0  0  0  0  0
  -13.2676   -1.9363    0.0000 C   0  0  0  0  0  0  0  0  0  0  0  0
  -12.6575   -3.3066    0.0000 N   0  0  0  0  0  0  0  0  0  0  0  0
  -11.1657   -3.4634    0.0000 C   0  0  0  0  0  0  0  0  0  0  0  0
  1  2  2  0
  2  3  1  0
  3  4  2  0
  4  5  1  0
  5  6  1  0
  6  7  1  0
  7  8  2  0
  8  9  1  0
  9  1  1  0
  9  5  2  0
 10 11  2  0
 11 12  1  0
 12 13  2  0
 13 14  1  0
 14 10  1  0
 16 17  2  0
 17 18  1  0
 18 19  1  0
 19 20  1  0
 20 21  1  0
 21 16  1  0
 22 23  2  0
 23 24  1  0
 24 25  2  0
 25 26  1  0
 26 27  2  0
 27 22  1  0
  1 13  1  0
 12 15  1  0
 20 10  1  6
 16 22  1  0
M  END

