
     RDKit          2D

 34 37  0  0  0  0  0  0  0  0999 V2000
   -1.8351    3.2209    0.0000 C   0  0  0  0  0  0  0  0  0  0  0  0
   -0.4086    3.6844    0.0000 C   0  0  0  0  0  0  0  0  0  0  0  0
    0.7062    2.6807    0.0000 C   0  0  0  0  0  0  0  0  0  0  0  0
    0.3943    1.2135    0.0000 C   0  0  0  0  0  0  0  0  0  0  0  0
    1.2760    0.0000    0.0000 C   0  0  0  0  0  0  0  0  0  0  0  0
    0.3943   -1.2135    0.0000 C   0  0  0  0  0  0  0  0  0  0  0  0
   -1.0323   -0.7500    0.0000 N   0  0  0  0  0  0  0  0  0  0  0  0
   -1.0323    0.7500    0.0000 C   0  0  0  0  0  0  0  0  0  0  0  0
   -2.1470    1.7537    0.0000 C   0  0  0  0  0  0  0  0  0  0  0  0
   -5.1671    5.2118    0.0000 C   0  0  0  0  0  0  0  0  0  0  0  0
   -4.1634    6.3265    0.0000 N   0  0  0  0  0  0  0  0  0  0  0  0
   -2.7931    5.7164    0.0000 C   0  0  0  0  0  0  0  0  0  0  0  0
   -2.9499    4.2246    0.0000 N   0  0  0  0  0  0  0  0  0  0  0  0
   -4.4171    3.9127    0.0000 N   0  0  0  0  0  0  0  0  0  0  0  0
    1.1041   10.9664    0.0000 C   0  0  0  0  0  0  0  0  0  0  0  0
   -0.1950   10.2164    0.0000 C   0  0  0  0  0  0  0  0  0  0  0  0
   -0.1950    8.7164    0.0000 O   0  0  0  0  0  0  0  0  0  0  0  0
   -1.4940    7.9664    0.0000 C   0  0  0  0  0  0  0  0  0  0  0  0
   -1.4940    6.4664    0.0000 C   0  0  0  0  0  0  0  0  0  0  0  0
   -6.6589    5.3686    0.0000 C   0  0  0  0  0  0  0  0  0  0  0  0
   -6.5542    3.8722    0.0000 C   0  0  0  0  0  0  0  0  0  0  0  0
   -7.7978    3.0334    0.0000 C   0  0  0  0  0  0  0  0  0  0  0  0
   -9.1460    3.6910    0.0000 O   0  0  0  0  0  0  0  0  0  0  0  0
   -9.2506    5.1873    0.0000 C   0  0  0  0  0  0  0  0  0  0  0  0
   -8.0070    6.0261    0.0000 C   0  0  0  0  0  0  0  0  0  0  0  0
   -8.3294    8.9685    0.0000 C   0  0  0  0  0  0  0  0  0  0  0  0
   -6.8739    9.3314    0.0000 C   0  0  0  0  0  0  0  0  0  0  0  0
   -6.4605   10.7733    0.0000 C   0  0  0  0  0  0  0  0  0  0  0  0
   -5.0050   11.1361    0.0000 C   0  0  0  0  0  0  0  0  0  0  0  0
   -5.8319    8.2524    0.0000 N   0  0  0  0  0  0  0  0  0  0  0  0
   -4.3765    8.6152    0.0000 C   0  0  0  0  0  0  0  0  0  0  0  0
   -6.2454    6.8105    0.0000 S   0  0  0  0  0  0  0  0  0  0  0  0
   -5.0311    6.7681    0.0000 O   0  0  0  0  0  0  0  0  0  0  0  0
   -7.6873    7.2239    0.0000 O   0  0  0  0  0  0  0  0  0  0  0  0
  1  2  2  0
  2  3  1  0
  3  4  2  0
  4  5  1  0
  5  6  2  0
  6  7  1  0
  7  8  1  0
  8  9  2  0
  9  1  1  0
  8  4  1  0
 10 11  1  0
 11 12  2  0
 12 13  1  0
 13 14  1  0
 14 10  2  0
 15 16  1  0
 16 17  1  0
 17 18  1  0
 18 19  1  0
 20 21  1  0
 21 22  1  0
 22 23  1  0
 23 24  1  0
 24 25  1  0
 25 20  1  0
 27 26  1  6
 27 28  1  0
 28 29  1  0
 27 30  1  0
 30 31  1  0
 30 32  1  0
 32 33  2  0
 32 34  2  0
  1 13  1  0
 12 19  1  0
 10 20  1  0
 20 32  1  0
M  END

