
     RDKit          2D

 29 33  0  0  0  0  0  0  0  0999 V2000
    2.9335    1.8293    0.0000 C   0  0  0  0  0  0  0  0  0  0  0  0
    1.5069    2.2929    0.0000 C   0  0  0  0  0  0  0  0  0  0  0  0
    0.3922    1.2892    0.0000 C   0  0  0  0  0  0  0  0  0  0  0  0
   -1.0344    1.7527    0.0000 N   0  0  0  0  0  0  0  0  0  0  0  0
   -2.1491    0.7490    0.0000 C   0  0  0  0  0  0  0  0  0  0  0  0
   -3.5757    1.2125    0.0000 C   0  0  0  0  0  0  0  0  0  0  0  0
   -4.6904    0.2088    0.0000 C   0  0  0  0  0  0  0  0  0  0  0  0
   -6.1170    0.6723    0.0000 O   0  0  0  0  0  0  0  0  0  0  0  0
   -4.3786   -1.2584    0.0000 N   0  0  0  0  0  0  0  0  0  0  0  0
   -2.9520   -1.7219    0.0000 C   0  0  0  0  0  0  0  0  0  0  0  0
   -2.6401   -3.1891    0.0000 C   0  0  0  0  0  0  0  0  0  0  0  0
   -1.2135   -2.7256    0.0000 N   0  0  0  0  0  0  0  0  0  0  0  0
   -0.7500   -1.2990    0.0000 C   0  0  0  0  0  0  0  0  0  0  0  0
    0.7500   -1.2990    0.0000 C   0  0  0  0  0  0  0  0  0  0  0  0
    1.2135   -2.7256    0.0000 C   0  0  0  0  0  0  0  0  0  0  0  0
    2.5838   -3.3357    0.0000 C   0  0  0  0  0  0  0  0  0  0  0  0
    3.7974   -2.4540    0.0000 F   0  0  0  0  0  0  0  0  0  0  0  0
    2.7406   -4.8275    0.0000 C   0  0  0  0  0  0  0  0  0  0  0  0
    1.5271   -5.7092    0.0000 C   0  0  0  0  0  0  0  0  0  0  0  0
    0.1568   -5.0991    0.0000 C   0  0  0  0  0  0  0  0  0  0  0  0
    0.0000   -3.6073    0.0000 C   0  0  0  0  0  0  0  0  0  0  0  0
   -4.1319   -3.3459    0.0000 O   0  0  0  0  0  0  0  0  0  0  0  0
   -4.4438   -4.8132    0.0000 C   0  0  0  0  0  0  0  0  0  0  0  0
   -3.1447   -5.5632    0.0000 C   0  0  0  0  0  0  0  0  0  0  0  0
   -2.0300   -4.5595    0.0000 O   0  0  0  0  0  0  0  0  0  0  0  0
   -1.8373   -0.7182    0.0000 N   0  0  0  0  0  0  0  0  0  0  0  0
   -1.3463    3.2199    0.0000 C   0  0  0  0  0  0  0  0  0  0  0  0
   -0.2316    4.2236    0.0000 C   0  0  0  0  0  0  0  0  0  0  0  0
    1.1950    3.7601    0.0000 O   0  0  0  0  0  0  0  0  0  0  0  0
  1  2  1  0
  2  3  1  0
  3  4  1  0
  4  5  1  0
  5  6  2  0
  6  7  1  0
  7  8  2  0
  7  9  1  0
  9 10  1  0
 10 11  1  0
 11 12  1  0
 12 13  1  0
 13 14  1  0
 14 15  1  0
 15 16  2  0
 16 17  1  0
 16 18  1  0
 18 19  2  0
 19 20  1  0
 20 21  2  0
 11 22  1  0
 22 23  1  0
 23 24  1  0
 24 25  1  0
 10 26  2  0
  4 27  1  0
 27 28  1  0
 28 29  1  0
 29  2  1  0
 26  5  1  0
 25 11  1  0
 21 12  1  0
 21 15  1  0
M  ISO  1  17  18
M  END

