
     RDKit          2D

 20 21  0  0  0  0  0  0  0  0999 V2000
   -3.4593   -2.5134    0.0000 C   0  0  0  0  0  0  0  0  0  0  0  0
   -2.2458   -1.6317    0.0000 S   0  0  0  0  0  0  0  0  0  0  0  0
   -1.3641   -2.8452    0.0000 O   0  0  0  0  0  0  0  0  0  0  0  0
   -3.1275   -0.4182    0.0000 O   0  0  0  0  0  0  0  0  0  0  0  0
    0.3943    1.2135    0.0000 C   0  0  0  0  0  0  0  0  0  0  0  0
    1.2760    0.0000    0.0000 C   0  0  0  0  0  0  0  0  0  0  0  0
    0.3943   -1.2135    0.0000 N   0  0  0  0  0  0  0  0  0  0  0  0
   -1.0323   -0.7500    0.0000 C   0  0  0  0  0  0  0  0  0  0  0  0
   -1.0323    0.7500    0.0000 O   0  0  0  0  0  0  0  0  0  0  0  0
    2.2844    4.6036    0.0000 C   0  0  0  0  0  0  0  0  0  0  0  0
    0.8578    5.0672    0.0000 N   0  0  0  0  0  0  0  0  0  0  0  0
   -0.0239    3.8536    0.0000 C   0  0  0  0  0  0  0  0  0  0  0  0
    0.8578    2.6401    0.0000 C   0  0  0  0  0  0  0  0  0  0  0  0
    2.2844    3.1036    0.0000 S   0  0  0  0  0  0  0  0  0  0  0  0
   -1.5239    3.8536    0.0000 C   0  0  0  0  0  0  0  0  0  0  0  0
    7.4521    5.1468    0.0000 C   0  0  0  0  0  0  0  0  0  0  0  0
    6.0818    5.7569    0.0000 C   0  0  0  0  0  0  0  0  0  0  0  0
    4.8683    4.8752    0.0000 C   0  0  0  0  0  0  0  0  0  0  0  0
    5.0250    3.3834    0.0000 O   0  0  0  0  0  0  0  0  0  0  0  0
    3.4979    5.4853    0.0000 N   0  0  0  0  0  0  0  0  0  0  0  0
  1  2  1  0
  2  3  2  0
  2  4  2  0
  5  6  2  0
  6  7  1  0
  7  8  2  0
  8  9  1  0
  9  5  1  0
 10 11  2  0
 11 12  1  0
 12 13  2  0
 13 14  1  0
 14 10  1  0
 16 17  1  0
 17 18  1  0
 18 19  2  0
 18 20  1  0
  2  8  1  0
  5 13  1  0
 12 15  1  0
 10 20  1  0
M  END

