
     RDKit          2D

 33 38  0  0  0  0  0  0  0  0999 V2000
   -1.2990   -1.8107    0.0000 N   0  0  0  0  0  0  0  0  0  0  0  0
   -0.0000   -1.0607    0.0000 C   0  0  0  0  0  0  0  0  0  0  0  0
    1.2990   -1.8107    0.0000 C   0  0  0  0  0  0  0  0  0  0  0  0
    1.2990   -3.3107    0.0000 O   0  0  0  0  0  0  0  0  0  0  0  0
    0.0000   -4.0607    0.0000 C   0  0  0  0  0  0  0  0  0  0  0  0
   -1.2990   -3.3107    0.0000 C   0  0  0  0  0  0  0  0  0  0  0  0
   -1.6873   -4.7595    0.0000 C   0  0  0  0  0  0  0  0  0  0  0  0
   -3.1362   -4.3713    0.0000 C   0  0  0  0  0  0  0  0  0  0  0  0
   -2.7479   -2.9224    0.0000 C   0  0  0  0  0  0  0  0  0  0  0  0
   -4.9721   -0.5560    0.0000 C   0  0  0  0  0  0  0  0  0  0  0  0
   -4.2221    0.7430    0.0000 C   0  0  0  0  0  0  0  0  0  0  0  0
   -2.7549    0.4311    0.0000 C   0  0  0  0  0  0  0  0  0  0  0  0
   -2.5981   -1.0607    0.0000 N   0  0  0  0  0  0  0  0  0  0  0  0
   -3.9684   -1.6708    0.0000 N   0  0  0  0  0  0  0  0  0  0  0  0
   -1.6402    1.4348    0.0000 N   0  0  0  0  0  0  0  0  0  0  0  0
   -1.9520    2.9020    0.0000 C   0  0  0  0  0  0  0  0  0  0  0  0
   -0.8373    3.9057    0.0000 C   0  0  0  0  0  0  0  0  0  0  0  0
    0.5330    4.5158    0.0000 C   0  0  0  0  0  0  0  0  0  0  0  0
    1.5367    3.4011    0.0000 C   0  0  0  0  0  0  0  0  0  0  0  0
    0.7867    2.1021    0.0000 C   0  0  0  0  0  0  0  0  0  0  0  0
   -0.2136    0.9713    0.0000 C   0  0  0  0  0  0  0  0  0  0  0  0
   -0.6805    2.4140    0.0000 O   0  0  0  0  0  0  0  0  0  0  0  0
   -9.4474   -1.0264    0.0000 C   0  0  0  0  0  0  0  0  0  0  0  0
   -8.8373    0.3439    0.0000 C   0  0  0  0  0  0  0  0  0  0  0  0
   -7.3456    0.5007    0.0000 C   0  0  0  0  0  0  0  0  0  0  0  0
   -6.4639   -0.7128    0.0000 C   0  0  0  0  0  0  0  0  0  0  0  0
   -7.0740   -2.0832    0.0000 C   0  0  0  0  0  0  0  0  0  0  0  0
   -8.5658   -2.2400    0.0000 N   0  0  0  0  0  0  0  0  0  0  0  0
   -7.0070    4.4548    0.0000 N   0  0  0  0  0  0  0  0  0  0  0  0
   -7.6171    3.0845    0.0000 C   0  0  0  0  0  0  0  0  0  0  0  0
   -6.7354    1.8710    0.0000 C   0  0  0  0  0  0  0  0  0  0  0  0
   -5.2437    2.0278    0.0000 O   0  0  0  0  0  0  0  0  0  0  0  0
  -10.9392   -1.1832    0.0000 N   0  0  0  0  0  0  0  0  0  0  0  0
  1  2  1  0
  2  3  1  0
  3  4  1  0
  4  5  1  0
  5  6  1  0
  6  7  1  0
  7  8  1  0
  8  9  1  0
  6  1  1  0
  9  6  1  0
 10 11  1  0
 11 12  2  0
 12 13  1  0
 13 14  1  0
 14 10  2  0
 15 16  1  0
 16 17  1  0
 17 18  1  0
 18 19  1  0
 19 20  1  0
 20 21  1  0
 20 22  1  0
 21 15  1  0
 22 17  1  0
 23 24  2  0
 24 25  1  0
 25 26  2  0
 26 27  1  0
 27 28  2  0
 28 23  1  0
 29 30  1  0
 30 31  1  0
 31 32  1  6
  1 13  1  0
 12 15  1  0
 10 26  1  0
 25 31  1  0
 23 33  1  0
M  END

