
     RDKit          2D

 31 34  0  0  0  0  0  0  0  0999 V2000
   -2.1470    1.7537    0.0000 C   0  0  0  0  0  0  0  0  0  0  0  0
   -1.8351    3.2209    0.0000 N   0  0  0  0  0  0  0  0  0  0  0  0
   -0.4086    3.6844    0.0000 C   0  0  0  0  0  0  0  0  0  0  0  0
    0.7062    2.6807    0.0000 N   0  0  0  0  0  0  0  0  0  0  0  0
    0.3943    1.2135    0.0000 C   0  0  0  0  0  0  0  0  0  0  0  0
    1.2760    0.0000    0.0000 N   0  0  0  0  0  0  0  0  0  0  0  0
    0.3943   -1.2135    0.0000 C   0  0  0  0  0  0  0  0  0  0  0  0
   -1.0323   -0.7500    0.0000 C   0  0  0  0  0  0  0  0  0  0  0  0
   -1.0323    0.7500    0.0000 C   0  0  0  0  0  0  0  0  0  0  0  0
   -6.4268    0.3631    0.0000 C   0  0  0  0  0  0  0  0  0  0  0  0
   -5.3120   -0.6406    0.0000 C   0  0  0  0  0  0  0  0  0  0  0  0
   -3.8855   -0.1771    0.0000 C   0  0  0  0  0  0  0  0  0  0  0  0
   -3.5736    1.2902    0.0000 N   0  0  0  0  0  0  0  0  0  0  0  0
   -4.6883    2.2939    0.0000 C   0  0  0  0  0  0  0  0  0  0  0  0
   -6.1149    1.8303    0.0000 C   0  0  0  0  0  0  0  0  0  0  0  0
   -8.7207   -0.8566    0.0000 C   0  0  0  0  0  0  0  0  0  0  0  0
   -7.2216   -0.9090    0.0000 C   0  0  0  0  0  0  0  0  0  0  0  0
   -6.5174   -2.2334    0.0000 N   0  0  0  0  0  0  0  0  0  0  0  0
   -7.3123   -3.5054    0.0000 C   0  0  0  0  0  0  0  0  0  0  0  0
   -8.8114   -3.4531    0.0000 O   0  0  0  0  0  0  0  0  0  0  0  0
   -6.1866   -7.2200    0.0000 C   0  0  0  0  0  0  0  0  0  0  0  0
   -4.8622   -6.5158    0.0000 C   0  0  0  0  0  0  0  0  0  0  0  0
   -5.1227   -5.0386    0.0000 N   0  0  0  0  0  0  0  0  0  0  0  0
   -6.6081   -4.8299    0.0000 C   0  0  0  0  0  0  0  0  0  0  0  0
   -7.2657   -6.1781    0.0000 C   0  0  0  0  0  0  0  0  0  0  0  0
   -9.5945  -12.8001    0.0000 C   0  0  0  0  0  0  0  0  0  0  0  0
   -9.3857  -11.3147    0.0000 C   0  0  0  0  0  0  0  0  0  0  0  0
   -7.9949  -10.7528    0.0000 O   0  0  0  0  0  0  0  0  0  0  0  0
   -7.7862   -9.2674    0.0000 C   0  0  0  0  0  0  0  0  0  0  0  0
   -6.3954   -8.7054    0.0000 C   0  0  0  0  0  0  0  0  0  0  0  0
   -7.8175    0.9250    0.0000 N   0  0  0  0  0  0  0  0  0  0  0  0
  1  2  2  0
  2  3  1  0
  3  4  2  0
  4  5  1  0
  5  6  1  0
  6  7  1  0
  7  8  2  0
  8  9  1  0
  9  1  1  0
  9  5  2  0
 10 11  1  0
 11 12  1  0
 12 13  1  0
 13 14  1  0
 14 15  1  0
 15 10  1  0
 17 16  1  6
 17 18  1  0
 18 19  1  0
 19 20  2  0
 21 22  2  0
 22 23  1  0
 23 24  1  0
 24 25  2  0
 25 21  1  0
 26 27  1  0
 27 28  1  0
 28 29  1  0
 29 30  1  0
  1 13  1  0
 10 17  1  0
 19 24  1  0
 21 30  1  0
 10 31  1  0
M  END

