
     RDKit          2D

 33 37  0  0  0  0  0  0  0  0999 V2000
   -0.3207   -8.5658    0.0000 N   0  0  0  0  0  0  0  0  0  0  0  0
   -1.2647   -9.7315    0.0000 C   0  0  0  0  0  0  0  0  0  0  0  0
   -0.0990  -10.6755    0.0000 C   0  0  0  0  0  0  0  0  0  0  0  0
    0.8450   -9.5097    0.0000 C   0  0  0  0  0  0  0  0  0  0  0  0
   -1.8478   -6.4639    0.0000 C   0  0  0  0  0  0  0  0  0  0  0  0
   -0.4775   -7.0740    0.0000 C   0  0  0  0  0  0  0  0  0  0  0  0
   -3.3037   -4.2221    0.0000 C   0  0  0  0  0  0  0  0  0  0  0  0
   -2.9918   -2.7549    0.0000 N   0  0  0  0  0  0  0  0  0  0  0  0
   -1.5000   -2.5981    0.0000 C   0  0  0  0  0  0  0  0  0  0  0  0
   -0.8899   -3.9684    0.0000 C   0  0  0  0  0  0  0  0  0  0  0  0
   -2.0046   -4.9721    0.0000 N   0  0  0  0  0  0  0  0  0  0  0  0
    3.0000    0.0000    0.0000 O   0  0  0  0  0  0  0  0  0  0  0  0
    1.5000    0.0000    0.0000 C   0  0  0  0  0  0  0  0  0  0  0  0
    0.7500   -1.2990    0.0000 C   0  0  0  0  0  0  0  0  0  0  0  0
   -0.7500   -1.2990    0.0000 C   0  0  0  0  0  0  0  0  0  0  0  0
   -1.5000    0.0000    0.0000 C   0  0  0  0  0  0  0  0  0  0  0  0
   -0.7500    1.2990    0.0000 C   0  0  0  0  0  0  0  0  0  0  0  0
    0.7500    1.2990    0.0000 N   0  0  0  0  0  0  0  0  0  0  0  0
   -7.4146   -6.0524    0.0000 N   0  0  0  0  0  0  0  0  0  0  0  0
   -6.2011   -6.9341    0.0000 C   0  0  0  0  0  0  0  0  0  0  0  0
   -4.8308   -6.3240    0.0000 C   0  0  0  0  0  0  0  0  0  0  0  0
   -4.6740   -4.8322    0.0000 C   0  0  0  0  0  0  0  0  0  0  0  0
   -5.8875   -3.9505    0.0000 C   0  0  0  0  0  0  0  0  0  0  0  0
   -7.2578   -4.5606    0.0000 C   0  0  0  0  0  0  0  0  0  0  0  0
   -9.0968   -8.1297    0.0000 C   0  0  0  0  0  0  0  0  0  0  0  0
   -8.7849   -6.6625    0.0000 C   0  0  0  0  0  0  0  0  0  0  0  0
  -10.0840   -5.9125    0.0000 N   0  0  0  0  0  0  0  0  0  0  0  0
  -11.1987   -6.9162    0.0000 N   0  0  0  0  0  0  0  0  0  0  0  0
  -10.5886   -8.2865    0.0000 C   0  0  0  0  0  0  0  0  0  0  0  0
  -11.3386   -9.5856    0.0000 N   0  0  0  0  0  0  0  0  0  0  0  0
   -8.5566  -10.6710    0.0000 N   0  0  0  0  0  0  0  0  0  0  0  0
   -8.0931   -9.2444    0.0000 C   0  0  0  0  0  0  0  0  0  0  0  0
   -6.6259   -8.9326    0.0000 O   0  0  0  0  0  0  0  0  0  0  0  0
  1  2  1  0
  2  3  1  0
  3  4  1  0
  4  1  1  0
  5  6  1  0
  7  8  2  0
  8  9  1  0
  9 10  2  0
 10 11  1  0
 11  7  1  0
 12 13  2  0
 13 14  1  0
 14 15  2  0
 15 16  1  0
 16 17  2  0
 17 18  1  0
 18 13  1  0
 19 20  1  0
 20 21  1  0
 21 22  2  0
 22 23  1  0
 23 24  1  0
 24 19  1  0
 25 26  1  0
 26 27  2  0
 27 28  1  0
 28 29  1  0
 29 25  2  0
 31 32  1  0
 32 33  2  0
  1  6  1  0
  5 11  1  0
  9 15  1  0
  7 22  1  0
 19 26  1  0
 29 30  1  0
 25 32  1  0
M  END

