
     RDKit          2D

 27 31  0  0  0  0  0  0  0  0999 V2000
   -1.9944    5.4975    0.0000 O   0  0  0  0  0  0  0  0  0  0  0  0
   -0.7808    4.6158    0.0000 C   0  0  0  0  0  0  0  0  0  0  0  0
    0.5895    5.2259    0.0000 O   0  0  0  0  0  0  0  0  0  0  0  0
    0.7463    6.7177    0.0000 C   0  0  0  0  0  0  0  0  0  0  0  0
    2.1166    7.3278    0.0000 C   0  0  0  0  0  0  0  0  0  0  0  0
    2.2734    8.8196    0.0000 C   0  0  0  0  0  0  0  0  0  0  0  0
    3.6437    9.4297    0.0000 O   0  0  0  0  0  0  0  0  0  0  0  0
    1.0599    9.7013    0.0000 N   0  0  0  0  0  0  0  0  0  0  0  0
   -0.3105    9.0911    0.0000 C   0  0  0  0  0  0  0  0  0  0  0  0
   -1.5240    9.9728    0.0000 N   0  0  0  0  0  0  0  0  0  0  0  0
   -1.3672   11.4646    0.0000 C   0  0  0  0  0  0  0  0  0  0  0  0
   -2.5807   12.3463    0.0000 C   0  0  0  0  0  0  0  0  0  0  0  0
   -3.9510   11.7362    0.0000 O   0  0  0  0  0  0  0  0  0  0  0  0
   -4.1078   10.2444    0.0000 C   0  0  0  0  0  0  0  0  0  0  0  0
   -2.8943    9.3627    0.0000 C   0  0  0  0  0  0  0  0  0  0  0  0
   -0.4672    7.5994    0.0000 N   0  0  0  0  0  0  0  0  0  0  0  0
   -0.9376    3.1240    0.0000 N   0  0  0  0  0  0  0  0  0  0  0  0
    0.1771    2.1203    0.0000 C   0  0  0  0  0  0  0  0  0  0  0  0
   -0.4330    0.7500    0.0000 C   0  0  0  0  0  0  0  0  0  0  0  0
    0.8660    0.0000    0.0000 C   0  0  0  0  0  0  0  0  0  0  0  0
   -0.4330   -0.7500    0.0000 C   0  0  0  0  0  0  0  0  0  0  0  0
   -1.9248    0.9068    0.0000 C   0  0  0  0  0  0  0  0  0  0  0  0
   -3.0395   -0.0969    0.0000 C   0  0  0  0  0  0  0  0  0  0  0  0
   -4.4661    0.3666    0.0000 C   0  0  0  0  0  0  0  0  0  0  0  0
   -4.7780    1.8338    0.0000 C   0  0  0  0  0  0  0  0  0  0  0  0
   -3.6632    2.8375    0.0000 C   0  0  0  0  0  0  0  0  0  0  0  0
   -2.2367    2.3740    0.0000 C   0  0  0  0  0  0  0  0  0  0  0  0
  1  2  2  0
  2  3  1  0
  3  4  1  0
  4  5  2  0
  5  6  1  0
  6  7  2  0
  6  8  1  0
  8  9  1  0
  9 10  1  0
 10 11  1  0
 11 12  1  0
 12 13  1  0
 13 14  1  0
 14 15  1  0
  9 16  2  0
  2 17  1  0
 17 18  1  0
 18 19  1  0
 19 20  1  0
 20 21  1  0
 19 22  1  0
 22 23  2  0
 23 24  1  0
 24 25  2  0
 25 26  1  0
 26 27  2  0
 16  4  1  0
 27 17  1  0
 15 10  1  0
 21 19  1  0
 27 22  1  0
M  END

