
     RDKit          2D

 23 24  0  0  0  0  0  0  0  0999 V2000
    0.9688   -4.7585    0.0000 C   0  0  0  0  0  0  0  0  0  0  0  0
   -0.1459   -3.7548    0.0000 C   0  0  0  0  0  0  0  0  0  0  0  0
   -1.2606   -2.7511    0.0000 C   0  0  0  0  0  0  0  0  0  0  0  0
   -1.1496   -4.8695    0.0000 C   0  0  0  0  0  0  0  0  0  0  0  0
   -2.6168   -4.5577    0.0000 O   0  0  0  0  0  0  0  0  0  0  0  0
    0.8578   -2.6401    0.0000 C   0  0  0  0  0  0  0  0  0  0  0  0
    0.3943    1.2135    0.0000 C   0  0  0  0  0  0  0  0  0  0  0  0
    1.2760    0.0000    0.0000 N   0  0  0  0  0  0  0  0  0  0  0  0
    0.3943   -1.2135    0.0000 C   0  0  0  0  0  0  0  0  0  0  0  0
   -1.0323   -0.7500    0.0000 C   0  0  0  0  0  0  0  0  0  0  0  0
   -1.0323    0.7500    0.0000 S   0  0  0  0  0  0  0  0  0  0  0  0
    2.2844    4.6036    0.0000 C   0  0  0  0  0  0  0  0  0  0  0  0
    0.8578    5.0672    0.0000 C   0  0  0  0  0  0  0  0  0  0  0  0
   -0.0239    3.8536    0.0000 C   0  0  0  0  0  0  0  0  0  0  0  0
    0.8578    2.6401    0.0000 N   0  0  0  0  0  0  0  0  0  0  0  0
    2.2844    3.1036    0.0000 N   0  0  0  0  0  0  0  0  0  0  0  0
   -3.0239    6.4517    0.0000 C   0  0  0  0  0  0  0  0  0  0  0  0
   -2.2739    5.1527    0.0000 C   0  0  0  0  0  0  0  0  0  0  0  0
   -1.5239    3.8536    0.0000 C   0  0  0  0  0  0  0  0  0  0  0  0
    6.0818    5.7569    0.0000 C   0  0  0  0  0  0  0  0  0  0  0  0
    4.8683    4.8752    0.0000 C   0  0  0  0  0  0  0  0  0  0  0  0
    5.0250    3.3834    0.0000 O   0  0  0  0  0  0  0  0  0  0  0  0
    3.4979    5.4853    0.0000 N   0  0  0  0  0  0  0  0  0  0  0  0
  1  2  1  0
  2  3  1  0
  2  4  1  0
  4  5  1  0
  2  6  1  0
  7  8  2  0
  8  9  1  0
  9 10  2  0
 10 11  1  0
 11  7  1  0
 12 13  1  0
 13 14  2  0
 14 15  1  0
 15 16  1  0
 16 12  2  0
 17 18  3  0
 18 19  1  0
 20 21  1  0
 21 22  2  0
 21 23  1  0
  6  9  1  0
  7 15  1  0
 14 19  1  0
 12 23  1  0
M  END

