
     RDKit          2D

 32 36  0  0  0  0  0  0  0  0999 V2000
  -10.1401    6.0665    0.0000 N   0  0  0  0  0  0  0  0  0  0  0  0
   -8.6483    6.2232    0.0000 C   0  0  0  0  0  0  0  0  0  0  0  0
   -8.0382    7.5936    0.0000 C   0  0  0  0  0  0  0  0  0  0  0  0
   -8.9199    8.8071    0.0000 N   0  0  0  0  0  0  0  0  0  0  0  0
   -8.3098   10.1774    0.0000 C   0  0  0  0  0  0  0  0  0  0  0  0
   -9.1915   11.3909    0.0000 C   0  0  0  0  0  0  0  0  0  0  0  0
  -10.6832   11.2341    0.0000 O   0  0  0  0  0  0  0  0  0  0  0  0
   -8.5813   12.7613    0.0000 O   0  0  0  0  0  0  0  0  0  0  0  0
   -6.8180   10.3342    0.0000 N   0  0  0  0  0  0  0  0  0  0  0  0
   -5.9363    9.1207    0.0000 C   0  0  0  0  0  0  0  0  0  0  0  0
   -4.4445    9.2775    0.0000 N   0  0  0  0  0  0  0  0  0  0  0  0
   -3.4408    8.1628    0.0000 C   0  0  0  0  0  0  0  0  0  0  0  0
   -3.7527    6.6955    0.0000 C   0  0  0  0  0  0  0  0  0  0  0  0
   -2.6380    5.6918    0.0000 C   0  0  0  0  0  0  0  0  0  0  0  0
   -2.9499    4.2246    0.0000 N   0  0  0  0  0  0  0  0  0  0  0  0
   -1.8351    3.2209    0.0000 C   0  0  0  0  0  0  0  0  0  0  0  0
   -0.4086    3.6844    0.0000 C   0  0  0  0  0  0  0  0  0  0  0  0
    0.7062    2.6807    0.0000 C   0  0  0  0  0  0  0  0  0  0  0  0
    0.3943    1.2135    0.0000 C   0  0  0  0  0  0  0  0  0  0  0  0
    1.2760    0.0000    0.0000 C   0  0  0  0  0  0  0  0  0  0  0  0
    0.3943   -1.2135    0.0000 N   0  0  0  0  0  0  0  0  0  0  0  0
   -1.0323   -0.7500    0.0000 N   0  0  0  0  0  0  0  0  0  0  0  0
   -1.0323    0.7500    0.0000 C   0  0  0  0  0  0  0  0  0  0  0  0
   -2.1470    1.7537    0.0000 C   0  0  0  0  0  0  0  0  0  0  0  0
   -2.0705    8.7729    0.0000 N   0  0  0  0  0  0  0  0  0  0  0  0
   -2.2273   10.2646    0.0000 C   0  0  0  0  0  0  0  0  0  0  0  0
   -1.2236   11.3794    0.0000 C   0  0  0  0  0  0  0  0  0  0  0  0
   -1.6871   12.8059    0.0000 C   0  0  0  0  0  0  0  0  0  0  0  0
   -3.1544   13.1178    0.0000 C   0  0  0  0  0  0  0  0  0  0  0  0
   -4.1581   12.0031    0.0000 C   0  0  0  0  0  0  0  0  0  0  0  0
   -3.6945   10.5765    0.0000 C   0  0  0  0  0  0  0  0  0  0  0  0
   -6.5464    7.7504    0.0000 N   0  0  0  0  0  0  0  0  0  0  0  0
  1  2  1  0
  2  3  1  0
  3  4  2  0
  4  5  1  0
  5  6  1  0
  6  7  2  0
  6  8  1  0
  5  9  2  0
  9 10  1  0
 10 11  1  0
 11 12  1  0
 12 13  1  0
 13 14  1  0
 14 15  1  0
 15 16  1  0
 16 17  2  0
 17 18  1  0
 18 19  2  0
 19 20  1  0
 20 21  2  0
 21 22  1  0
 22 23  1  0
 23 24  2  0
 12 25  2  0
 25 26  1  0
 26 27  2  0
 27 28  1  0
 28 29  2  0
 29 30  1  0
 30 31  2  0
 10 32  2  0
 32  3  1  0
 31 11  1  0
 24 16  1  0
 31 26  1  0
 23 19  1  0
M  END

