
     RDKit          2D

 37 41  0  0  0  0  0  0  0  0999 V2000
   -6.2086   -1.4166    0.0000 F   0  0  0  0  0  0  0  0  0  0  0  0
   -4.7667   -1.0031    0.0000 C   0  0  0  0  0  0  0  0  0  0  0  0
   -5.1802    0.4387    0.0000 F   0  0  0  0  0  0  0  0  0  0  0  0
   -4.3533   -2.4450    0.0000 F   0  0  0  0  0  0  0  0  0  0  0  0
   -3.3248   -0.5897    0.0000 C   0  0  0  0  0  0  0  0  0  0  0  0
   -2.2458   -1.6317    0.0000 C   0  0  0  0  0  0  0  0  0  0  0  0
   -3.0846   -2.8752    0.0000 C   0  0  0  0  0  0  0  0  0  0  0  0
   -1.5883   -2.9799    0.0000 C   0  0  0  0  0  0  0  0  0  0  0  0
    0.3943    1.2135    0.0000 C   0  0  0  0  0  0  0  0  0  0  0  0
    1.2760    0.0000    0.0000 C   0  0  0  0  0  0  0  0  0  0  0  0
    0.3943   -1.2135    0.0000 S   0  0  0  0  0  0  0  0  0  0  0  0
   -1.0323   -0.7500    0.0000 C   0  0  0  0  0  0  0  0  0  0  0  0
   -1.0323    0.7500    0.0000 N   0  0  0  0  0  0  0  0  0  0  0  0
    2.2844    3.1036    0.0000 C   0  0  0  0  0  0  0  0  0  0  0  0
    2.2844    4.6036    0.0000 N   0  0  0  0  0  0  0  0  0  0  0  0
    0.8578    5.0672    0.0000 C   0  0  0  0  0  0  0  0  0  0  0  0
   -0.0239    3.8536    0.0000 S   0  0  0  0  0  0  0  0  0  0  0  0
    0.8578    2.6401    0.0000 C   0  0  0  0  0  0  0  0  0  0  0  0
   -2.2458    9.3389    0.0000 O   0  0  0  0  0  0  0  0  0  0  0  0
   -1.0323    8.4573    0.0000 C   0  0  0  0  0  0  0  0  0  0  0  0
   -1.0323    6.9573    0.0000 C   0  0  0  0  0  0  0  0  0  0  0  0
    0.3943    6.4937    0.0000 C   0  0  0  0  0  0  0  0  0  0  0  0
    1.2760    7.7073    0.0000 C   0  0  0  0  0  0  0  0  0  0  0  0
    2.7760    7.7073    0.0000 O   0  0  0  0  0  0  0  0  0  0  0  0
    0.3943    8.9208    0.0000 N   0  0  0  0  0  0  0  0  0  0  0  0
    2.2844   10.8109    0.0000 N   0  0  0  0  0  0  0  0  0  0  0  0
    2.2844   12.3109    0.0000 C   0  0  0  0  0  0  0  0  0  0  0  0
    0.8578   12.7744    0.0000 C   0  0  0  0  0  0  0  0  0  0  0  0
   -0.0239   11.5609    0.0000 C   0  0  0  0  0  0  0  0  0  0  0  0
    0.8578   10.3474    0.0000 C   0  0  0  0  0  0  0  0  0  0  0  0
   -2.2739   12.8599    0.0000 C   0  0  0  0  0  0  0  0  0  0  0  0
   -1.5239   11.5609    0.0000 C   0  0  0  0  0  0  0  0  0  0  0  0
   -2.2739   10.2619    0.0000 O   0  0  0  0  0  0  0  0  0  0  0  0
    3.4979    9.9292    0.0000 O   0  0  0  0  0  0  0  0  0  0  0  0
    6.2386    3.4422    0.0000 C   0  0  0  0  0  0  0  0  0  0  0  0
    4.8683    2.8321    0.0000 C   0  0  0  0  0  0  0  0  0  0  0  0
    3.4979    2.2220    0.0000 C   0  0  0  0  0  0  0  0  0  0  0  0
  1  2  1  0
  2  3  1  0
  2  4  1  0
  2  5  1  0
  6  7  1  0
  7  8  1  0
  8  6  1  0
  9 10  2  0
 10 11  1  0
 11 12  1  0
 12 13  2  0
 13  9  1  0
 14 15  1  0
 15 16  2  0
 16 17  1  0
 17 18  1  0
 18 14  2  0
 19 20  2  0
 20 21  1  0
 21 22  2  0
 22 23  1  0
 23 24  2  0
 23 25  1  0
 25 20  1  0
 26 27  1  0
 27 28  1  0
 28 29  1  0
 29 30  1  0
 30 26  1  0
 31 32  1  0
 32 33  2  0
 35 36  3  0
 36 37  1  0
  5  6  1  0
  6 12  1  0
  9 18  1  0
 16 22  1  0
 30 25  1  1
 29 32  1  6
 26 34  1  0
 14 37  1  0
M  END

