
     RDKit          2D

 30 33  0  0  0  0  0  0  0  0999 V2000
    6.0030   -7.6658    0.0000 C   0  0  0  0  0  0  0  0  0  0  0  0
    6.3148   -9.1330    0.0000 C   0  0  0  0  0  0  0  0  0  0  0  0
    7.7414   -9.5966    0.0000 C   0  0  0  0  0  0  0  0  0  0  0  0
    8.8561   -8.5929    0.0000 C   0  0  0  0  0  0  0  0  0  0  0  0
    8.5443   -7.1257    0.0000 C   0  0  0  0  0  0  0  0  0  0  0  0
    7.1177   -6.6621    0.0000 C   0  0  0  0  0  0  0  0  0  0  0  0
    3.7735   -9.6732    0.0000 C   0  0  0  0  0  0  0  0  0  0  0  0
    3.4617   -8.2060    0.0000 C   0  0  0  0  0  0  0  0  0  0  0  0
    2.0351   -7.7425    0.0000 C   0  0  0  0  0  0  0  0  0  0  0  0
    1.7232   -6.2752    0.0000 C   0  0  0  0  0  0  0  0  0  0  0  0
    4.5764   -7.2023    0.0000 C   0  0  0  0  0  0  0  0  0  0  0  0
   -1.4418   -3.8810    0.0000 C   0  0  0  0  0  0  0  0  0  0  0  0
   -2.5565   -4.8847    0.0000 C   0  0  0  0  0  0  0  0  0  0  0  0
   -2.2447   -6.3519    0.0000 N   0  0  0  0  0  0  0  0  0  0  0  0
   -0.8181   -6.8154    0.0000 C   0  0  0  0  0  0  0  0  0  0  0  0
    0.2966   -5.8117    0.0000 C   0  0  0  0  0  0  0  0  0  0  0  0
   -0.0152   -4.3445    0.0000 C   0  0  0  0  0  0  0  0  0  0  0  0
    1.5000    0.0000    0.0000 C   0  0  0  0  0  0  0  0  0  0  0  0
    0.7500   -1.2990    0.0000 C   0  0  0  0  0  0  0  0  0  0  0  0
   -0.7500   -1.2990    0.0000 C   0  0  0  0  0  0  0  0  0  0  0  0
   -1.7537   -2.4138    0.0000 C   0  0  0  0  0  0  0  0  0  0  0  0
   -3.1240   -1.8037    0.0000 N   0  0  0  0  0  0  0  0  0  0  0  0
   -2.9672   -0.3119    0.0000 N   0  0  0  0  0  0  0  0  0  0  0  0
   -1.5000    0.0000    0.0000 C   0  0  0  0  0  0  0  0  0  0  0  0
   -0.7500    1.2990    0.0000 C   0  0  0  0  0  0  0  0  0  0  0  0
    0.7500    1.2990    0.0000 N   0  0  0  0  0  0  0  0  0  0  0  0
    6.0000   -2.5981    0.0000 C   0  0  0  0  0  0  0  0  0  0  0  0
    5.2500   -1.2990    0.0000 C   0  0  0  0  0  0  0  0  0  0  0  0
    3.7500   -1.2990    0.0000 C   0  0  0  0  0  0  0  0  0  0  0  0
    3.0000    0.0000    0.0000 S   0  0  0  0  0  0  0  0  0  0  0  0
  1  2  2  0
  2  3  1  0
  3  4  2  0
  4  5  1  0
  5  6  2  0
  6  1  1  0
  8  7  1  6
  8  9  1  0
  9 10  1  0
  8 11  1  0
 12 13  2  0
 13 14  1  0
 14 15  2  0
 15 16  1  0
 16 17  2  0
 17 12  1  0
 18 19  2  0
 19 20  1  0
 20 21  1  0
 21 22  2  0
 22 23  1  0
 23 24  1  0
 24 25  1  0
 25 26  2  0
 26 18  1  0
 24 20  2  0
 27 28  1  0
 28 29  1  0
 29 30  1  0
  1 11  1  0
 10 16  1  0
 12 21  1  0
 18 30  1  0
M  END

