
     RDKit          2D

 30 32  0  0  0  0  0  0  0  0999 V2000
    0.9688   -4.7585    0.0000 C   0  0  0  0  0  0  0  0  0  0  0  0
   -0.1459   -3.7548    0.0000 C   0  0  0  0  0  0  0  0  0  0  0  0
   -1.2606   -2.7511    0.0000 C   0  0  0  0  0  0  0  0  0  0  0  0
   -1.1496   -4.8695    0.0000 C   0  0  0  0  0  0  0  0  0  0  0  0
    0.8578   -2.6401    0.0000 O   0  0  0  0  0  0  0  0  0  0  0  0
    0.3943    1.2135    0.0000 C   0  0  0  0  0  0  0  0  0  0  0  0
    1.2760    0.0000    0.0000 C   0  0  0  0  0  0  0  0  0  0  0  0
    0.3943   -1.2135    0.0000 C   0  0  0  0  0  0  0  0  0  0  0  0
   -1.0323   -0.7500    0.0000 O   0  0  0  0  0  0  0  0  0  0  0  0
   -1.0323    0.7500    0.0000 N   0  0  0  0  0  0  0  0  0  0  0  0
    2.2844    3.1036    0.0000 C   0  0  0  0  0  0  0  0  0  0  0  0
    2.2844    4.6036    0.0000 N   0  0  0  0  0  0  0  0  0  0  0  0
    0.8578    5.0672    0.0000 C   0  0  0  0  0  0  0  0  0  0  0  0
   -0.0239    3.8536    0.0000 S   0  0  0  0  0  0  0  0  0  0  0  0
    0.8578    2.6401    0.0000 C   0  0  0  0  0  0  0  0  0  0  0  0
   -1.0729    6.8056    0.0000 O   0  0  0  0  0  0  0  0  0  0  0  0
    0.3943    6.4937    0.0000 C   0  0  0  0  0  0  0  0  0  0  0  0
    1.3980    7.6085    0.0000 N   0  0  0  0  0  0  0  0  0  0  0  0
    1.8161   10.2486    0.0000 N   0  0  0  0  0  0  0  0  0  0  0  0
    0.9345   11.4621    0.0000 C   0  0  0  0  0  0  0  0  0  0  0  0
   -0.4921   10.9986    0.0000 C   0  0  0  0  0  0  0  0  0  0  0  0
   -0.4921    9.4986    0.0000 C   0  0  0  0  0  0  0  0  0  0  0  0
    0.9345    9.0350    0.0000 C   0  0  0  0  0  0  0  0  0  0  0  0
   -1.5488   13.3720    0.0000 N   0  0  0  0  0  0  0  0  0  0  0  0
   -1.7056   11.8803    0.0000 C   0  0  0  0  0  0  0  0  0  0  0  0
   -3.0760   11.2701    0.0000 O   0  0  0  0  0  0  0  0  0  0  0  0
    4.0661   11.5476    0.0000 C   0  0  0  0  0  0  0  0  0  0  0  0
    3.3161   10.2486    0.0000 N   0  0  0  0  0  0  0  0  0  0  0  0
    4.0661    8.9495    0.0000 C   0  0  0  0  0  0  0  0  0  0  0  0
    3.4979    2.2220    0.0000 C   0  0  0  0  0  0  0  0  0  0  0  0
  1  2  1  0
  2  3  1  0
  2  4  1  0
  2  5  1  0
  6  7  1  0
  7  8  2  0
  8  9  1  0
  9 10  1  0
 10  6  2  0
 11 12  1  0
 12 13  2  0
 13 14  1  0
 14 15  1  0
 15 11  2  0
 16 17  2  0
 17 18  1  0
 19 20  1  0
 20 21  1  0
 21 22  1  0
 22 23  1  0
 23 19  1  0
 24 25  1  0
 25 26  2  0
 27 28  1  0
 28 29  1  0
  5  8  1  0
  6 15  1  0
 13 17  1  0
 23 18  1  1
 21 25  1  1
 19 28  1  0
 11 30  1  0
M  END

