
     RDKit          2D

 35 38  0  0  0  0  0  0  0  0999 V2000
   -2.2819    7.6216    0.0000 C   0  0  0  0  0  0  0  0  0  0  0  0
   -1.9700    6.1544    0.0000 O   0  0  0  0  0  0  0  0  0  0  0  0
   -3.0847    5.1507    0.0000 C   0  0  0  0  0  0  0  0  0  0  0  0
   -2.7729    3.6834    0.0000 C   0  0  0  0  0  0  0  0  0  0  0  0
   -3.8876    2.6797    0.0000 N   0  0  0  0  0  0  0  0  0  0  0  0
   -5.3142    3.1433    0.0000 C   0  0  0  0  0  0  0  0  0  0  0  0
   -3.5757    1.2125    0.0000 C   0  0  0  0  0  0  0  0  0  0  0  0
   -2.1491    0.7490    0.0000 N   0  0  0  0  0  0  0  0  0  0  0  0
   -1.8373   -0.7182    0.0000 C   0  0  0  0  0  0  0  0  0  0  0  0
   -0.4107   -1.1818    0.0000 O   0  0  0  0  0  0  0  0  0  0  0  0
    0.7040   -0.1781    0.0000 C   0  0  0  0  0  0  0  0  0  0  0  0
    2.1306   -0.6416    0.0000 C   0  0  0  0  0  0  0  0  0  0  0  0
    3.2453    0.3621    0.0000 O   0  0  0  0  0  0  0  0  0  0  0  0
    4.6719   -0.1014    0.0000 C   0  0  0  0  0  0  0  0  0  0  0  0
    5.7866    0.9023    0.0000 C   0  0  0  0  0  0  0  0  0  0  0  0
    7.2132    0.4388    0.0000 F   0  0  0  0  0  0  0  0  0  0  0  0
   -2.9520   -1.7219    0.0000 C   0  0  0  0  0  0  0  0  0  0  0  0
   -2.6401   -3.1891    0.0000 C   0  0  0  0  0  0  0  0  0  0  0  0
   -4.1319   -3.3459    0.0000 N   0  0  0  0  0  0  0  0  0  0  0  0
   -5.1356   -2.2312    0.0000 C   0  0  0  0  0  0  0  0  0  0  0  0
   -6.5059   -2.8413    0.0000 C   0  0  0  0  0  0  0  0  0  0  0  0
   -6.3491   -4.3331    0.0000 C   0  0  0  0  0  0  0  0  0  0  0  0
   -7.3528   -5.4478    0.0000 C   0  0  0  0  0  0  0  0  0  0  0  0
   -8.8200   -5.1360    0.0000 F   0  0  0  0  0  0  0  0  0  0  0  0
   -6.8893   -6.8744    0.0000 C   0  0  0  0  0  0  0  0  0  0  0  0
   -5.4221   -7.1863    0.0000 C   0  0  0  0  0  0  0  0  0  0  0  0
   -4.4184   -6.0716    0.0000 C   0  0  0  0  0  0  0  0  0  0  0  0
   -4.8819   -4.6450    0.0000 C   0  0  0  0  0  0  0  0  0  0  0  0
   -1.2135   -2.7256    0.0000 O   0  0  0  0  0  0  0  0  0  0  0  0
   -0.3318   -3.9391    0.0000 C   0  0  0  0  0  0  0  0  0  0  0  0
   -1.2135   -5.1527    0.0000 C   0  0  0  0  0  0  0  0  0  0  0  0
   -2.6401   -4.6891    0.0000 O   0  0  0  0  0  0  0  0  0  0  0  0
   -4.3786   -1.2584    0.0000 C   0  0  0  0  0  0  0  0  0  0  0  0
   -5.0824   -1.6326    0.0000 O   0  0  0  0  0  0  0  0  0  0  0  0
   -4.6904    0.2088    0.0000 N   0  0  0  0  0  0  0  0  0  0  0  0
  1  2  1  0
  2  3  1  0
  3  4  1  0
  4  5  1  0
  5  6  1  0
  5  7  1  0
  7  8  2  0
  8  9  1  0
  9 10  1  0
 10 11  1  0
 11 12  1  0
 12 13  1  0
 13 14  1  0
 14 15  1  0
 15 16  1  0
  9 17  2  0
 17 18  1  0
 18 19  1  0
 19 20  1  0
 20 21  1  0
 21 22  1  0
 22 23  2  0
 23 24  1  0
 23 25  1  0
 25 26  2  0
 26 27  1  0
 27 28  2  0
 18 29  1  0
 29 30  1  0
 30 31  1  0
 31 32  1  0
 17 33  1  0
 33 34  2  0
 33 35  1  0
 35  7  1  0
 32 18  1  0
 28 19  1  0
 28 22  1  0
M  END

