
     RDKit          2D

 35 39  0  0  0  0  0  0  0  0999 V2000
   -7.5000   -5.1962    0.0000 C   0  0  0  0  0  0  0  0  0  0  0  0
   -6.0000   -5.1962    0.0000 C   0  0  0  0  0  0  0  0  0  0  0  0
   -5.2500   -3.8971    0.0000 C   0  0  0  0  0  0  0  0  0  0  0  0
   -3.7500   -3.8971    0.0000 N   0  0  0  0  0  0  0  0  0  0  0  0
   -1.5000   -2.5981    0.0000 N   0  0  0  0  0  0  0  0  0  0  0  0
   -3.0000   -2.5981    0.0000 C   0  0  0  0  0  0  0  0  0  0  0  0
    0.7500   -1.2990    0.0000 C   0  0  0  0  0  0  0  0  0  0  0  0
    1.5000    0.0000    0.0000 C   0  0  0  0  0  0  0  0  0  0  0  0
    0.7500    1.2990    0.0000 C   0  0  0  0  0  0  0  0  0  0  0  0
   -0.7500    1.2990    0.0000 C   0  0  0  0  0  0  0  0  0  0  0  0
   -1.5000    0.0000    0.0000 C   0  0  0  0  0  0  0  0  0  0  0  0
   -0.7500   -1.2990    0.0000 C   0  0  0  0  0  0  0  0  0  0  0  0
    1.5000    5.1962    0.0000 C   0  0  0  0  0  0  0  0  0  0  0  0
    3.0000    5.1962    0.0000 C   0  0  0  0  0  0  0  0  0  0  0  0
    3.7500    3.8971    0.0000 C   0  0  0  0  0  0  0  0  0  0  0  0
    3.0000    2.5981    0.0000 N   0  0  0  0  0  0  0  0  0  0  0  0
    1.5000    2.5981    0.0000 C   0  0  0  0  0  0  0  0  0  0  0  0
    0.7500    3.8971    0.0000 C   0  0  0  0  0  0  0  0  0  0  0  0
    0.7500    6.4952    0.0000 C   0  0  0  0  0  0  0  0  0  0  0  0
    3.8740   -3.1027    0.0000 N   0  0  0  0  0  0  0  0  0  0  0  0
    3.1240   -4.4017    0.0000 C   0  0  0  0  0  0  0  0  0  0  0  0
    1.6568   -4.0899    0.0000 C   0  0  0  0  0  0  0  0  0  0  0  0
    0.2865   -3.4798    0.0000 C   0  0  0  0  0  0  0  0  0  0  0  0
    1.5000   -2.5981    0.0000 C   0  0  0  0  0  0  0  0  0  0  0  0
    2.8703   -1.9880    0.0000 C   0  0  0  0  0  0  0  0  0  0  0  0
    7.7398   -3.4505    0.0000 C   0  0  0  0  0  0  0  0  0  0  0  0
    7.5830   -1.9587    0.0000 C   0  0  0  0  0  0  0  0  0  0  0  0
    6.1158   -1.6469    0.0000 N   0  0  0  0  0  0  0  0  0  0  0  0
    5.3658   -2.9459    0.0000 N   0  0  0  0  0  0  0  0  0  0  0  0
    6.3695   -4.0606    0.0000 C   0  0  0  0  0  0  0  0  0  0  0  0
    5.7458   -6.9951    0.0000 C   0  0  0  0  0  0  0  0  0  0  0  0
    6.0576   -5.5278    0.0000 C   0  0  0  0  0  0  0  0  0  0  0  0
    9.0388   -4.2005    0.0000 N   0  0  0  0  0  4  0  0  0  0  0  0
    9.0388   -5.7005    0.0000 O   0  0  0  0  0  0  0  0  0  0  0  0
   10.3379   -3.4505    0.0000 O   0  0  0  0  0  1  0  0  0  0  0  0
  1  2  1  0
  2  3  1  0
  3  4  1  0
  5  6  1  0
  7  8  2  0
  8  9  1  0
  9 10  2  0
 10 11  1  0
 11 12  2  0
 12  7  1  0
 13 14  2  0
 14 15  1  0
 15 16  2  0
 16 17  1  0
 17 18  2  0
 18 13  1  0
 20 21  1  0
 22 21  1  1
 22 23  1  0
 23 24  1  0
 24 25  1  0
 25 20  1  0
 24 22  1  0
 26 27  1  0
 27 28  2  0
 28 29  1  0
 29 30  1  0
 30 26  2  0
 31 32  3  0
 33 34  2  0
 33 35  1  0
  4  6  1  0
  5 12  1  0
  9 17  1  0
 13 19  1  0
 24  7  1  6
 20 29  1  0
 30 32  1  0
 26 33  1  0
M  CHG  2  33   1  35  -1
M  END

