
     RDKit          2D

 39 44  0  0  0  0  0  0  0  0999 V2000
   -7.4217   -5.4969    0.0000 N   0  0  0  0  0  0  0  0  0  0  0  0
   -6.1227   -6.2469    0.0000 C   0  0  0  0  0  0  0  0  0  0  0  0
   -6.4346   -7.7141    0.0000 C   0  0  0  0  0  0  0  0  0  0  0  0
   -7.9263   -7.8709    0.0000 C   0  0  0  0  0  0  0  0  0  0  0  0
   -8.5364   -6.5006    0.0000 C   0  0  0  0  0  0  0  0  0  0  0  0
   -6.5218   -1.6317    0.0000 C   0  0  0  0  0  0  0  0  0  0  0  0
   -6.3650   -3.1235    0.0000 N   0  0  0  0  0  0  0  0  0  0  0  0
   -7.5785   -4.0051    0.0000 C   0  0  0  0  0  0  0  0  0  0  0  0
   -5.3083    0.7500    0.0000 C   0  0  0  0  0  0  0  0  0  0  0  0
   -3.8817    1.2135    0.0000 N   0  0  0  0  0  0  0  0  0  0  0  0
   -3.0000    0.0000    0.0000 C   0  0  0  0  0  0  0  0  0  0  0  0
   -3.8817   -1.2135    0.0000 C   0  0  0  0  0  0  0  0  0  0  0  0
   -5.3083   -0.7500    0.0000 N   0  0  0  0  0  0  0  0  0  0  0  0
    1.5000    0.0000    0.0000 C   0  0  0  0  0  0  0  0  0  0  0  0
    0.7500   -1.2990    0.0000 C   0  0  0  0  0  0  0  0  0  0  0  0
   -0.7500   -1.2990    0.0000 C   0  0  0  0  0  0  0  0  0  0  0  0
   -1.5000    0.0000    0.0000 C   0  0  0  0  0  0  0  0  0  0  0  0
   -0.7500    1.2990    0.0000 C   0  0  0  0  0  0  0  0  0  0  0  0
    0.7500    1.2990    0.0000 C   0  0  0  0  0  0  0  0  0  0  0  0
    7.5000   -2.5981    0.0000 C   0  0  0  0  0  0  0  0  0  0  0  0
    6.0000   -2.5981    0.0000 C   0  0  0  0  0  0  0  0  0  0  0  0
    5.2500   -1.2990    0.0000 O   0  0  0  0  0  0  0  0  0  0  0  0
    3.7500   -1.2990    0.0000 C   0  0  0  0  0  0  0  0  0  0  0  0
    3.0000    0.0000    0.0000 C   0  0  0  0  0  0  0  0  0  0  0  0
   -8.8958    1.1271    0.0000 N   0  0  0  0  0  0  0  0  0  0  0  0
   -8.7390    2.6188    0.0000 C   0  0  0  0  0  0  0  0  0  0  0  0
   -7.2718    2.9307    0.0000 C   0  0  0  0  0  0  0  0  0  0  0  0
   -5.7718    2.9307    0.0000 C   0  0  0  0  0  0  0  0  0  0  0  0
   -6.5218    1.6317    0.0000 C   0  0  0  0  0  0  0  0  0  0  0  0
   -7.5255    0.5170    0.0000 C   0  0  0  0  0  0  0  0  0  0  0  0
  -10.1948   -1.1229    0.0000 C   0  0  0  0  0  0  0  0  0  0  0  0
  -11.4939   -1.8729    0.0000 C   0  0  0  0  0  0  0  0  0  0  0  0
  -12.7929   -1.1229    0.0000 N   0  0  0  0  0  0  0  0  0  0  0  0
  -12.7929    0.3771    0.0000 C   0  0  0  0  0  0  0  0  0  0  0  0
  -11.4939    1.1271    0.0000 N   0  0  0  0  0  0  0  0  0  0  0  0
  -10.1948    0.3771    0.0000 C   0  0  0  0  0  0  0  0  0  0  0  0
  -11.4939   -3.3729    0.0000 N   0  0  0  0  0  0  0  0  0  0  0  0
   -8.8958   -3.3729    0.0000 C   0  0  0  0  0  0  0  0  0  0  0  0
   -8.8958   -1.8729    0.0000 C   0  0  0  0  0  0  0  0  0  0  0  0
  1  2  1  0
  2  3  1  0
  3  4  1  0
  4  5  1  0
  5  1  1  0
  6  7  1  0
  7  8  1  0
  9 10  2  0
 10 11  1  0
 11 12  2  0
 12 13  1  0
 13  9  1  0
 14 15  2  0
 15 16  1  0
 16 17  2  0
 17 18  1  0
 18 19  2  0
 19 14  1  0
 20 21  1  0
 21 22  1  0
 22 23  1  0
 23 24  1  0
 25 26  1  0
 27 26  1  1
 27 28  1  0
 28 29  1  0
 29 30  1  0
 30 25  1  0
 29 27  1  0
 31 32  2  0
 32 33  1  0
 33 34  2  0
 34 35  1  0
 35 36  2  0
 36 31  1  0
 38 39  1  0
  1  8  1  0
  6 13  1  0
 11 17  1  0
 14 24  1  0
 29  9  1  6
 25 36  1  0
 32 37  1  0
 31 39  1  0
M  END

