
     RDKit          2D

 43 48  0  0  0  0  0  0  0  0999 V2000
   -3.0000    0.0000    0.0000 N   0  0  0  0  0  0  0  0  0  0  0  0
    0.7500   -1.2990    0.0000 C   0  0  0  0  0  0  0  0  0  0  0  0
    1.5000    0.0000    0.0000 C   0  0  0  0  0  0  0  0  0  0  0  0
    0.7500    1.2990    0.0000 C   0  0  0  0  0  0  0  0  0  0  0  0
   -0.7500    1.2990    0.0000 C   0  0  0  0  0  0  0  0  0  0  0  0
   -1.5000    0.0000    0.0000 C   0  0  0  0  0  0  0  0  0  0  0  0
   -0.7500   -1.2990    0.0000 C   0  0  0  0  0  0  0  0  0  0  0  0
   -1.5000    5.1962    0.0000 C   0  0  0  0  0  0  0  0  0  0  0  0
   -0.7500    3.8971    0.0000 C   0  0  0  0  0  0  0  0  0  0  0  0
   -1.5000    2.5981    0.0000 C   0  0  0  0  0  0  0  0  0  0  0  0
   -3.0000    2.5981    0.0000 N   0  0  0  0  0  0  0  0  0  0  0  0
   -3.7500    3.8971    0.0000 C   0  0  0  0  0  0  0  0  0  0  0  0
   -3.0000    5.1962    0.0000 N   0  0  0  0  0  0  0  0  0  0  0  0
   -0.7500    6.4952    0.0000 N   0  0  0  0  0  0  0  0  0  0  0  0
    3.0000   -5.1962    0.0000 C   0  0  0  0  0  0  0  0  0  0  0  0
    3.7500   -3.8971    0.0000 C   0  0  0  0  0  0  0  0  0  0  0  0
    3.0000   -2.5981    0.0000 C   0  0  0  0  0  0  0  0  0  0  0  0
    1.5000   -2.5981    0.0000 N   0  0  0  0  0  0  0  0  0  0  0  0
    0.7500   -3.8971    0.0000 C   0  0  0  0  0  0  0  0  0  0  0  0
    1.5000   -5.1962    0.0000 C   0  0  0  0  0  0  0  0  0  0  0  0
    5.2418   -6.6520    0.0000 N   0  0  0  0  0  0  0  0  0  0  0  0
    5.5537   -8.1192    0.0000 N   0  0  0  0  0  0  0  0  0  0  0  0
    4.2546   -8.8692    0.0000 C   0  0  0  0  0  0  0  0  0  0  0  0
    3.1399   -7.8655    0.0000 N   0  0  0  0  0  0  0  0  0  0  0  0
    3.7500   -6.4952    0.0000 C   0  0  0  0  0  0  0  0  0  0  0  0
    5.1546  -12.7344    0.0000 C   0  0  0  0  0  0  0  0  0  0  0  0
    3.7842  -13.3446    0.0000 C   0  0  0  0  0  0  0  0  0  0  0  0
    2.5707  -12.4629    0.0000 C   0  0  0  0  0  0  0  0  0  0  0  0
    2.7275  -10.9711    0.0000 C   0  0  0  0  0  0  0  0  0  0  0  0
    4.0978  -10.3610    0.0000 C   0  0  0  0  0  0  0  0  0  0  0  0
    5.3113  -11.2427    0.0000 C   0  0  0  0  0  0  0  0  0  0  0  0
   -1.0699   -9.8178    0.0000 F   0  0  0  0  0  0  0  0  0  0  0  0
    0.1437  -10.6995    0.0000 C   0  0  0  0  0  0  0  0  0  0  0  0
   -0.0131  -12.1913    0.0000 F   0  0  0  0  0  0  0  0  0  0  0  0
    1.5140  -10.0894    0.0000 O   0  0  0  0  0  0  0  0  0  0  0  0
    7.4248  -15.9896    0.0000 N   0  0  0  0  0  0  0  0  0  0  0  0
    6.2113  -15.1079    0.0000 C   0  0  0  0  0  0  0  0  0  0  0  0
    6.3681  -13.6161    0.0000 C   0  0  0  0  0  0  0  0  0  0  0  0
    8.3474   -4.3237    0.0000 N   0  0  0  0  0  0  0  0  0  0  0  0
    7.2326   -3.3200    0.0000 C   0  0  0  0  0  0  0  0  0  0  0  0
    5.9336   -4.0700    0.0000 C   0  0  0  0  0  0  0  0  0  0  0  0
    6.2455   -5.5373    0.0000 C   0  0  0  0  0  0  0  0  0  0  0  0
    7.7373   -5.6941    0.0000 C   0  0  0  0  0  0  0  0  0  0  0  0
  2  3  2  0
  3  4  1  0
  4  5  2  0
  5  6  1  0
  6  7  2  0
  7  2  1  0
  8  9  2  0
  9 10  1  0
 10 11  2  0
 11 12  1  0
 12 13  2  0
 13  8  1  0
 15 16  1  0
 16 17  1  0
 17 18  1  0
 18 19  1  0
 19 20  1  0
 20 15  1  0
 21 22  1  0
 22 23  2  0
 23 24  1  0
 24 25  2  0
 25 21  1  0
 26 27  2  0
 27 28  1  0
 28 29  2  0
 29 30  1  0
 30 31  2  0
 31 26  1  0
 32 33  1  0
 33 34  1  0
 33 35  1  0
 36 37  1  0
 37 38  1  0
 39 40  1  0
 40 41  1  0
 41 42  1  0
 42 43  1  0
 43 39  1  0
  1  6  1  0
  5 10  1  0
  8 14  1  0
  2 18  1  0
 15 25  1  0
 23 30  1  0
 29 35  1  0
 26 38  1  0
 21 42  1  0
M  END

