
     RDKit          2D

 33 37  0  0  0  0  0  0  0  0999 V2000
   -3.6971   -9.6403    0.0000 C   0  0  0  0  0  0  0  0  0  0  0  0
   -2.6934   -8.5256    0.0000 C   0  0  0  0  0  0  0  0  0  0  0  0
   -3.1570   -7.0990    0.0000 N   0  0  0  0  0  0  0  0  0  0  0  0
   -4.6242   -6.7871    0.0000 C   0  0  0  0  0  0  0  0  0  0  0  0
   -0.1459   -3.7548    0.0000 N   0  0  0  0  0  0  0  0  0  0  0  0
   -1.6131   -3.4430    0.0000 C   0  0  0  0  0  0  0  0  0  0  0  0
   -2.6168   -4.5577    0.0000 C   0  0  0  0  0  0  0  0  0  0  0  0
   -2.1533   -5.9843    0.0000 C   0  0  0  0  0  0  0  0  0  0  0  0
   -0.6860   -6.2961    0.0000 C   0  0  0  0  0  0  0  0  0  0  0  0
    0.3177   -5.1814    0.0000 C   0  0  0  0  0  0  0  0  0  0  0  0
    0.8578   -2.6401    0.0000 C   0  0  0  0  0  0  0  0  0  0  0  0
   -1.8351    3.2209    0.0000 C   0  0  0  0  0  0  0  0  0  0  0  0
   -0.4086    3.6844    0.0000 N   0  0  0  0  0  0  0  0  0  0  0  0
    0.7062    2.6807    0.0000 C   0  0  0  0  0  0  0  0  0  0  0  0
    0.3943    1.2135    0.0000 C   0  0  0  0  0  0  0  0  0  0  0  0
    1.2760    0.0000    0.0000 S   0  0  0  0  0  0  0  0  0  0  0  0
    0.3943   -1.2135    0.0000 C   0  0  0  0  0  0  0  0  0  0  0  0
   -1.0323   -0.7500    0.0000 C   0  0  0  0  0  0  0  0  0  0  0  0
   -1.0323    0.7500    0.0000 C   0  0  0  0  0  0  0  0  0  0  0  0
   -2.1470    1.7537    0.0000 N   0  0  0  0  0  0  0  0  0  0  0  0
    2.1328    3.1443    0.0000 N   0  0  0  0  0  0  0  0  0  0  0  0
    3.2475    2.1406    0.0000 C   0  0  0  0  0  0  0  0  0  0  0  0
    4.6741    2.6041    0.0000 C   0  0  0  0  0  0  0  0  0  0  0  0
    4.9859    4.0713    0.0000 O   0  0  0  0  0  0  0  0  0  0  0  0
    3.8712    5.0750    0.0000 C   0  0  0  0  0  0  0  0  0  0  0  0
    2.4446    4.6115    0.0000 C   0  0  0  0  0  0  0  0  0  0  0  0
   -5.4912    4.7648    0.0000 C   0  0  0  0  0  0  0  0  0  0  0  0
   -5.1793    6.2320    0.0000 C   0  0  0  0  0  0  0  0  0  0  0  0
   -3.7527    6.6955    0.0000 C   0  0  0  0  0  0  0  0  0  0  0  0
   -2.6380    5.6918    0.0000 C   0  0  0  0  0  0  0  0  0  0  0  0
   -2.9499    4.2246    0.0000 C   0  0  0  0  0  0  0  0  0  0  0  0
   -4.3764    3.7611    0.0000 C   0  0  0  0  0  0  0  0  0  0  0  0
   -6.9177    4.3013    0.0000 C   0  0  0  0  0  0  0  0  0  0  0  0
  1  2  1  0
  2  3  1  0
  3  4  1  0
  5  6  1  0
  6  7  1  0
  7  8  1  0
  8  9  1  0
  9 10  1  0
 10  5  1  0
 12 13  2  0
 13 14  1  0
 14 15  2  0
 15 16  1  0
 16 17  1  0
 17 18  2  0
 18 19  1  0
 19 20  2  0
 20 12  1  0
 19 15  1  0
 21 22  1  0
 22 23  1  0
 23 24  1  0
 24 25  1  0
 25 26  1  0
 26 21  1  0
 27 28  2  0
 28 29  1  0
 29 30  2  0
 30 31  1  0
 31 32  2  0
 32 27  1  0
  3  8  1  0
  5 11  1  0
 11 17  1  0
 14 21  1  0
 12 31  1  0
 27 33  1  0
M  END

