
     RDKit          2D

 32 37  0  0  0  0  0  0  0  0999 V2000
    1.5000   -2.5981    0.0000 C   0  0  0  0  0  0  0  0  0  0  0  0
    0.7500   -3.8971    0.0000 C   0  0  0  0  0  0  0  0  0  0  0  0
    1.5000   -5.1962    0.0000 C   0  0  0  0  0  0  0  0  0  0  0  0
    3.0000   -5.1962    0.0000 N   0  0  0  0  0  0  0  0  0  0  0  0
    3.7500   -3.8971    0.0000 C   0  0  0  0  0  0  0  0  0  0  0  0
    3.0000   -2.5981    0.0000 N   0  0  0  0  0  0  0  0  0  0  0  0
   -2.9672   -0.3119    0.0000 N   0  0  0  0  0  0  0  0  0  0  0  0
   -3.1240   -1.8037    0.0000 C   0  0  0  0  0  0  0  0  0  0  0  0
   -1.7537   -2.4138    0.0000 C   0  0  0  0  0  0  0  0  0  0  0  0
   -0.7500   -1.2990    0.0000 C   0  0  0  0  0  0  0  0  0  0  0  0
    0.7500   -1.2990    0.0000 C   0  0  0  0  0  0  0  0  0  0  0  0
    1.5000    0.0000    0.0000 C   0  0  0  0  0  0  0  0  0  0  0  0
    0.7500    1.2990    0.0000 C   0  0  0  0  0  0  0  0  0  0  0  0
   -0.7500    1.2990    0.0000 C   0  0  0  0  0  0  0  0  0  0  0  0
   -1.5000    0.0000    0.0000 C   0  0  0  0  0  0  0  0  0  0  0  0
   -6.3902    1.4418    0.0000 C   0  0  0  0  0  0  0  0  0  0  0  0
   -6.3902   -0.0582    0.0000 C   0  0  0  0  0  0  0  0  0  0  0  0
   -4.9636   -0.5217    0.0000 O   0  0  0  0  0  0  0  0  0  0  0  0
   -4.0819    0.6918    0.0000 C   0  0  0  0  0  0  0  0  0  0  0  0
   -4.9636    1.9054    0.0000 O   0  0  0  0  0  0  0  0  0  0  0  0
   -2.9672    1.6955    0.0000 C   0  0  0  0  0  0  0  0  0  0  0  0
   -1.5406    1.2320    0.0000 C   0  0  0  0  0  0  0  0  0  0  0  0
   -0.4259    2.2357    0.0000 C   0  0  0  0  0  0  0  0  0  0  0  0
   -0.7378    3.7029    0.0000 C   0  0  0  0  0  0  0  0  0  0  0  0
   -2.1644    4.1664    0.0000 C   0  0  0  0  0  0  0  0  0  0  0  0
   -3.2791    3.1627    0.0000 N   0  0  0  0  0  0  0  0  0  0  0  0
  -10.1876    2.5951    0.0000 C   0  0  0  0  0  0  0  0  0  0  0  0
  -10.0308    4.0869    0.0000 C   0  0  0  0  0  0  0  0  0  0  0  0
   -8.6605    4.6970    0.0000 C   0  0  0  0  0  0  0  0  0  0  0  0
   -7.4469    3.8153    0.0000 C   0  0  0  0  0  0  0  0  0  0  0  0
   -7.6037    2.3235    0.0000 N   0  0  0  0  0  0  0  0  0  0  0  0
   -8.9740    1.7134    0.0000 C   0  0  0  0  0  0  0  0  0  0  0  0
  1  2  2  0
  2  3  1  0
  3  4  2  0
  4  5  1  0
  5  6  2  0
  6  1  1  0
  7  8  1  0
  8  9  1  0
  9 10  1  0
 10 11  2  0
 11 12  1  0
 12 13  2  0
 13 14  1  0
 14 15  2  0
 15  7  1  0
 15 10  1  0
 16 17  1  0
 17 18  1  0
 18 19  1  0
 19 20  1  0
 20 16  1  0
 21 22  2  0
 22 23  1  0
 23 24  2  0
 24 25  1  0
 25 26  2  0
 26 21  1  0
 27 28  1  0
 28 29  1  0
 29 30  1  0
 30 31  1  0
 31 32  1  0
 32 27  1  0
  1 11  1  0
  7 19  1  0
 19 21  1  1
 16 31  1  6
M  END

