
     RDKit          2D

 42 47  0  0  0  0  0  0  0  0999 V2000
    0.7500   -3.3689    0.0000 N   0  0  0  0  0  0  0  0  0  0  0  0
   -0.7500   -3.3689    0.0000 C   0  0  0  0  0  0  0  0  0  0  0  0
   -1.2135   -1.9423    0.0000 C   0  0  0  0  0  0  0  0  0  0  0  0
   -0.0000   -1.0607    0.0000 C   0  0  0  0  0  0  0  0  0  0  0  0
    1.0607    0.0000    0.0000 C   0  0  0  0  0  0  0  0  0  0  0  0
    0.0000    1.0607    0.0000 O   0  0  0  0  0  0  0  0  0  0  0  0
   -1.0607    0.0000    0.0000 C   0  0  0  0  0  0  0  0  0  0  0  0
    1.2135   -1.9423    0.0000 C   0  0  0  0  0  0  0  0  0  0  0  0
    1.9033   -7.1663    0.0000 C   0  0  0  0  0  0  0  0  0  0  0  0
    1.0216   -5.9528    0.0000 N   0  0  0  0  0  0  0  0  0  0  0  0
    1.6317   -4.5824    0.0000 C   0  0  0  0  0  0  0  0  0  0  0  0
    2.0431   -9.8356    0.0000 C   0  0  0  0  0  0  0  0  0  0  0  0
    1.0394  -10.9504    0.0000 N   0  0  0  0  0  0  0  0  0  0  0  0
   -0.3309  -10.3403    0.0000 C   0  0  0  0  0  0  0  0  0  0  0  0
   -0.1741   -8.8485    0.0000 C   0  0  0  0  0  0  0  0  0  0  0  0
    1.2931   -8.5366    0.0000 N   0  0  0  0  0  0  0  0  0  0  0  0
   -2.9289  -13.3403    0.0000 C   0  0  0  0  0  0  0  0  0  0  0  0
   -4.2280  -12.5903    0.0000 C   0  0  0  0  0  0  0  0  0  0  0  0
   -4.2280  -11.0903    0.0000 C   0  0  0  0  0  0  0  0  0  0  0  0
   -2.9289  -10.3403    0.0000 C   0  0  0  0  0  0  0  0  0  0  0  0
   -1.6299  -11.0903    0.0000 C   0  0  0  0  0  0  0  0  0  0  0  0
   -1.6299  -12.5903    0.0000 C   0  0  0  0  0  0  0  0  0  0  0  0
   -5.5270   -5.8403    0.0000 C   0  0  0  0  0  0  0  0  0  0  0  0
   -4.2280   -6.5903    0.0000 C   0  0  0  0  0  0  0  0  0  0  0  0
   -4.2280   -8.0903    0.0000 C   0  0  0  0  0  0  0  0  0  0  0  0
   -2.9289   -8.8403    0.0000 N   0  0  0  0  0  0  0  0  0  0  0  0
   -2.9289  -14.8403    0.0000 F   0  0  0  0  0  0  0  0  0  0  0  0
    6.5185  -10.3060    0.0000 N   0  0  0  0  0  0  0  0  0  0  0  0
    5.9084   -8.9357    0.0000 C   0  0  0  0  0  0  0  0  0  0  0  0
    4.4166   -8.7789    0.0000 C   0  0  0  0  0  0  0  0  0  0  0  0
    3.5349   -9.9924    0.0000 C   0  0  0  0  0  0  0  0  0  0  0  0
    4.1450  -11.3628    0.0000 C   0  0  0  0  0  0  0  0  0  0  0  0
    5.6368  -11.5196    0.0000 C   0  0  0  0  0  0  0  0  0  0  0  0
    8.8920   -9.2493    0.0000 C   0  0  0  0  0  0  0  0  0  0  0  0
   10.3837   -9.4061    0.0000 C   0  0  0  0  0  0  0  0  0  0  0  0
   10.9938  -10.7764    0.0000 N   0  0  0  0  0  0  0  0  0  0  0  0
   10.1122  -11.9899    0.0000 C   0  0  0  0  0  0  0  0  0  0  0  0
    8.6204  -11.8331    0.0000 N   0  0  0  0  0  0  0  0  0  0  0  0
    8.0103  -10.4628    0.0000 C   0  0  0  0  0  0  0  0  0  0  0  0
   11.2654   -8.1926    0.0000 N   0  0  0  0  0  0  0  0  0  0  0  0
    9.1635   -6.6654    0.0000 C   0  0  0  0  0  0  0  0  0  0  0  0
    8.2819   -7.8790    0.0000 C   0  0  0  0  0  0  0  0  0  0  0  0
  1  2  1  0
  2  3  1  0
  3  4  1  0
  4  5  1  0
  5  6  1  0
  6  7  1  0
  4  8  1  0
  8  1  1  0
  7  4  1  0
  9 10  1  0
 10 11  1  0
 12 13  2  0
 13 14  1  0
 14 15  2  0
 15 16  1  0
 16 12  1  0
 17 18  2  0
 18 19  1  0
 19 20  2  0
 20 21  1  0
 21 22  2  0
 22 17  1  0
 23 24  1  0
 24 25  1  0
 25 26  1  0
 28 29  1  0
 29 30  1  0
 30 31  1  0
 31 32  1  0
 32 33  1  0
 33 28  1  0
 34 35  2  0
 35 36  1  0
 36 37  2  0
 37 38  1  0
 38 39  2  0
 39 34  1  0
 41 42  1  0
  1 11  1  0
  9 16  1  0
 14 21  1  0
 20 26  1  0
 17 27  1  0
 12 31  1  0
 28 39  1  0
 35 40  1  0
 34 42  1  0
M  END

