
     RDKit          2D

 33 36  0  0  0  0  0  0  0  0999 V2000
   -8.8354   -1.5118    0.0000 C   0  0  0  0  0  0  0  0  0  0  0  0
   -7.6218   -2.3935    0.0000 O   0  0  0  0  0  0  0  0  0  0  0  0
   -6.2515   -1.7834    0.0000 C   0  0  0  0  0  0  0  0  0  0  0  0
   -5.0380   -2.6650    0.0000 C   0  0  0  0  0  0  0  0  0  0  0  0
   -3.6677   -2.0549    0.0000 N   0  0  0  0  0  0  0  0  0  0  0  0
   -3.5109   -0.5631    0.0000 C   0  0  0  0  0  0  0  0  0  0  0  0
   -3.9813   -5.0385    0.0000 O   0  0  0  0  0  0  0  0  0  0  0  0
   -2.6110   -4.4284    0.0000 C   0  0  0  0  0  0  0  0  0  0  0  0
   -1.3974   -5.3101    0.0000 N   0  0  0  0  0  0  0  0  0  0  0  0
   -0.0271   -4.7000    0.0000 C   0  0  0  0  0  0  0  0  0  0  0  0
    1.1864   -5.5816    0.0000 O   0  0  0  0  0  0  0  0  0  0  0  0
    0.1297   -3.2082    0.0000 N   0  0  0  0  0  0  0  0  0  0  0  0
   -1.0838   -2.3265    0.0000 C   0  0  0  0  0  0  0  0  0  0  0  0
   -2.4542   -2.9366    0.0000 C   0  0  0  0  0  0  0  0  0  0  0  0
    3.9271   -2.5981    0.0000 C   0  0  0  0  0  0  0  0  0  0  0  0
    3.4635   -4.0247    0.0000 C   0  0  0  0  0  0  0  0  0  0  0  0
    1.9635   -4.0247    0.0000 O   0  0  0  0  0  0  0  0  0  0  0  0
    1.5000   -2.5981    0.0000 C   0  0  0  0  0  0  0  0  0  0  0  0
    2.7135   -1.7164    0.0000 O   0  0  0  0  0  0  0  0  0  0  0  0
    1.7537    2.4138    0.0000 N   0  0  0  0  0  0  0  0  0  0  0  0
    3.1240    1.8037    0.0000 C   0  0  0  0  0  0  0  0  0  0  0  0
    2.9672    0.3119    0.0000 C   0  0  0  0  0  0  0  0  0  0  0  0
    1.5000   -0.0000    0.0000 C   0  0  0  0  0  0  0  0  0  0  0  0
    0.7500   -1.2990    0.0000 C   0  0  0  0  0  0  0  0  0  0  0  0
   -0.7500   -1.2990    0.0000 C   0  0  0  0  0  0  0  0  0  0  0  0
   -1.5000   -0.0000    0.0000 C   0  0  0  0  0  0  0  0  0  0  0  0
   -0.7500    1.2990    0.0000 C   0  0  0  0  0  0  0  0  0  0  0  0
    0.7500    1.2990    0.0000 C   0  0  0  0  0  0  0  0  0  0  0  0
    2.2447    6.3519    0.0000 F   0  0  0  0  0  0  0  0  0  0  0  0
    2.5565    4.8847    0.0000 C   0  0  0  0  0  0  0  0  0  0  0  0
    3.9831    4.4211    0.0000 F   0  0  0  0  0  0  0  0  0  0  0  0
    1.4418    3.8810    0.0000 O   0  0  0  0  0  0  0  0  0  0  0  0
    5.3536   -2.1346    0.0000 C   0  0  0  0  0  0  0  0  0  0  0  0
  1  2  1  0
  2  3  1  0
  3  4  1  0
  4  5  1  0
  5  6  1  0
  7  8  2  0
  8  9  1  0
  9 10  1  0
 10 11  2  0
 10 12  1  0
 12 13  1  0
 13 14  2  0
 14  8  1  0
 15 16  1  0
 16 17  1  0
 17 18  1  0
 18 19  1  0
 19 15  1  0
 20 21  1  0
 21 22  1  0
 22 23  1  0
 23 24  2  0
 24 25  1  0
 25 26  2  0
 26 27  1  0
 27 28  2  0
 28 20  1  0
 28 23  1  0
 29 30  1  0
 30 31  1  0
 30 32  1  0
  5 14  1  0
 12 18  1  0
 18 24  1  6
 20 32  1  0
 15 33  1  1
M  END

