
     RDKit          2D

 22 24  0  0  0  0  0  0  0  0999 V2000
    0.3943    1.2135    0.0000 C   0  0  0  0  0  0  0  0  0  0  0  0
    1.2760    0.0000    0.0000 C   0  0  0  0  0  0  0  0  0  0  0  0
    0.3943   -1.2135    0.0000 C   0  0  0  0  0  0  0  0  0  0  0  0
   -1.0323   -0.7500    0.0000 O   0  0  0  0  0  0  0  0  0  0  0  0
   -1.0323    0.7500    0.0000 C   0  0  0  0  0  0  0  0  0  0  0  0
    2.2844    4.6036    0.0000 C   0  0  0  0  0  0  0  0  0  0  0  0
    2.2844    3.1036    0.0000 N   0  0  0  0  0  0  0  0  0  0  0  0
    0.8578    2.6401    0.0000 C   0  0  0  0  0  0  0  0  0  0  0  0
   -0.0239    3.8536    0.0000 N   0  0  0  0  0  0  0  0  0  0  0  0
    0.8578    5.0672    0.0000 O   0  0  0  0  0  0  0  0  0  0  0  0
    5.8062    6.2353    0.0000 C   0  0  0  0  0  0  0  0  0  0  0  0
    4.9245    7.4488    0.0000 C   0  0  0  0  0  0  0  0  0  0  0  0
    3.4979    6.9853    0.0000 C   0  0  0  0  0  0  0  0  0  0  0  0
    3.4979    5.4853    0.0000 N   0  0  0  0  0  0  0  0  0  0  0  0
    4.9245    5.0218    0.0000 N   0  0  0  0  0  0  0  0  0  0  0  0
    2.5980   10.8506    0.0000 C   0  0  0  0  0  0  0  0  0  0  0  0
    2.4412    9.3588    0.0000 C   0  0  0  0  0  0  0  0  0  0  0  0
    2.2844    7.8670    0.0000 C   0  0  0  0  0  0  0  0  0  0  0  0
    9.5562    4.9363    0.0000 C   0  0  0  0  0  0  0  0  0  0  0  0
    8.0562    4.9363    0.0000 C   0  0  0  0  0  0  0  0  0  0  0  0
    7.3062    3.6372    0.0000 O   0  0  0  0  0  0  0  0  0  0  0  0
    7.3062    6.2353    0.0000 N   0  0  0  0  0  0  0  0  0  0  0  0
  1  2  1  0
  2  3  1  0
  3  4  1  0
  4  5  1  0
  5  1  1  0
  6  7  2  0
  7  8  1  0
  8  9  2  0
  9 10  1  0
 10  6  1  0
 11 12  1  0
 12 13  2  0
 13 14  1  0
 14 15  1  0
 15 11  2  0
 16 17  3  0
 17 18  1  0
 19 20  1  0
 20 21  2  0
 20 22  1  0
  1  8  1  0
  6 14  1  0
 13 18  1  0
 11 22  1  0
M  END

