
     RDKit          2D

 40 45  0  0  0  0  0  0  0  0999 V2000
   -9.1334   -1.0216    0.0000 N   0  0  0  0  0  0  0  0  0  0  0  0
   -7.7631   -1.6317    0.0000 C   0  0  0  0  0  0  0  0  0  0  0  0
   -7.6063   -3.1235    0.0000 O   0  0  0  0  0  0  0  0  0  0  0  0
   -6.5495   -0.7500    0.0000 C   0  0  0  0  0  0  0  0  0  0  0  0
   -5.1230   -1.2135    0.0000 C   0  0  0  0  0  0  0  0  0  0  0  0
   -4.6594   -2.6401    0.0000 N   0  0  0  0  0  0  0  0  0  0  0  0
   -4.2413    0.0000    0.0000 N   0  0  0  0  0  0  0  0  0  0  0  0
   -2.7413    0.0000    0.0000 N   0  0  0  0  0  0  0  0  0  0  0  0
   -1.8596    1.2135    0.0000 C   0  0  0  0  0  0  0  0  0  0  0  0
   -0.4330    0.7500    0.0000 C   0  0  0  0  0  0  0  0  0  0  0  0
    0.8660    0.0000    0.0000 C   0  0  0  0  0  0  0  0  0  0  0  0
   -0.4330   -0.7500    0.0000 C   0  0  0  0  0  0  0  0  0  0  0  0
    0.1771   -2.1203    0.0000 C   0  0  0  0  0  0  0  0  0  0  0  0
   -0.7046   -3.3338    0.0000 C   0  0  0  0  0  0  0  0  0  0  0  0
   -0.0945   -4.7042    0.0000 C   0  0  0  0  0  0  0  0  0  0  0  0
   -0.9762   -5.9177    0.0000 C   0  0  0  0  0  0  0  0  0  0  0  0
   -2.4679   -5.7609    0.0000 C   0  0  0  0  0  0  0  0  0  0  0  0
   -3.3496   -6.9744    0.0000 C   0  0  0  0  0  0  0  0  0  0  0  0
   -4.8414   -6.8176    0.0000 O   0  0  0  0  0  0  0  0  0  0  0  0
   -5.7231   -8.0312    0.0000 C   0  0  0  0  0  0  0  0  0  0  0  0
   -6.9366   -7.1495    0.0000 F   0  0  0  0  0  0  0  0  0  0  0  0
   -4.5096   -8.9128    0.0000 F   0  0  0  0  0  0  0  0  0  0  0  0
   -6.6048   -9.2447    0.0000 C   0  0  0  0  0  0  0  0  0  0  0  0
   -8.0965   -9.0879    0.0000 F   0  0  0  0  0  0  0  0  0  0  0  0
   -5.9947  -10.6150    0.0000 F   0  0  0  0  0  0  0  0  0  0  0  0
   -2.7395   -8.3447    0.0000 C   0  0  0  0  0  0  0  0  0  0  0  0
   -1.2477   -8.5015    0.0000 C   0  0  0  0  0  0  0  0  0  0  0  0
   -0.3661   -7.2880    0.0000 N   0  0  0  0  0  0  0  0  0  0  0  0
    1.3973   -4.8610    0.0000 C   0  0  0  0  0  0  0  0  0  0  0  0
    2.2790   -3.6474    0.0000 C   0  0  0  0  0  0  0  0  0  0  0  0
    1.6689   -2.2771    0.0000 C   0  0  0  0  0  0  0  0  0  0  0  0
    2.5506   -1.0636    0.0000 N   0  0  0  0  0  0  0  0  0  0  0  0
    4.0423   -1.2204    0.0000 C   0  0  0  0  0  0  0  0  0  0  0  0
    4.9240   -0.0069    0.0000 N   0  0  0  0  0  0  0  0  0  0  0  0
    6.4055    0.2278    0.0000 C   0  0  0  0  0  0  0  0  0  0  0  0
    6.1709    1.7093    0.0000 C   0  0  0  0  0  0  0  0  0  0  0  0
    4.6894    1.4747    0.0000 C   0  0  0  0  0  0  0  0  0  0  0  0
   -1.8596   -1.2135    0.0000 C   0  0  0  0  0  0  0  0  0  0  0  0
   -5.1230    1.2135    0.0000 N   0  0  0  0  0  0  0  0  0  0  0  0
   -6.5495    0.7500    0.0000 C   0  0  0  0  0  0  0  0  0  0  0  0
  1  2  1  0
  2  3  2  0
  2  4  1  0
  4  5  2  0
  5  6  1  0
  5  7  1  0
  7  8  1  0
  8  9  1  0
 10  9  1  1
 10 11  1  0
 11 12  1  0
 12 13  1  6
 13 14  2  0
 14 15  1  0
 15 16  1  0
 16 17  2  0
 17 18  1  0
 18 19  1  0
 19 20  1  0
 20 21  1  0
 20 22  1  0
 20 23  1  0
 23 24  1  0
 23 25  1  0
 18 26  2  0
 26 27  1  0
 27 28  2  0
 15 29  2  0
 29 30  1  0
 30 31  2  0
 31 32  1  0
 32 33  1  0
 33 34  1  0
 34 35  1  0
 35 36  1  0
 36 37  1  0
 12 38  1  0
  7 39  1  0
 39 40  2  0
 40  4  1  0
 38  8  1  0
 12 10  1  0
 31 13  1  0
 37 34  1  0
 28 16  1  0
M  END

