
     RDKit          2D

 27 30  0  0  0  0  0  0  0  0999 V2000
   -7.2487   -8.2563    0.0000 C   0  0  0  0  0  0  0  0  0  0  0  0
   -8.1303   -9.4698    0.0000 C   0  0  0  0  0  0  0  0  0  0  0  0
   -7.5202  -10.8402    0.0000 C   0  0  0  0  0  0  0  0  0  0  0  0
   -6.0285  -10.9969    0.0000 C   0  0  0  0  0  0  0  0  0  0  0  0
   -5.1468   -9.7834    0.0000 C   0  0  0  0  0  0  0  0  0  0  0  0
   -5.7569   -8.4131    0.0000 C   0  0  0  0  0  0  0  0  0  0  0  0
  -11.7240   -7.7859    0.0000 N   0  0  0  0  0  0  0  0  0  0  0  0
  -10.2322   -7.9427    0.0000 C   0  0  0  0  0  0  0  0  0  0  0  0
   -9.3506   -6.7292    0.0000 C   0  0  0  0  0  0  0  0  0  0  0  0
   -7.8588   -6.8860    0.0000 C   0  0  0  0  0  0  0  0  0  0  0  0
   -6.9771   -5.6725    0.0000 N   0  0  0  0  0  0  0  0  0  0  0  0
   -5.4853   -5.8293    0.0000 C   0  0  0  0  0  0  0  0  0  0  0  0
   -4.8752   -7.1996    0.0000 O   0  0  0  0  0  0  0  0  0  0  0  0
   -2.6401   -3.1891    0.0000 C   0  0  0  0  0  0  0  0  0  0  0  0
   -3.1036   -4.6157    0.0000 C   0  0  0  0  0  0  0  0  0  0  0  0
   -4.6036   -4.6157    0.0000 C   0  0  0  0  0  0  0  0  0  0  0  0
   -5.0672   -3.1891    0.0000 C   0  0  0  0  0  0  0  0  0  0  0  0
   -3.8536   -2.3075    0.0000 S   0  0  0  0  0  0  0  0  0  0  0  0
   -1.2135   -2.7256    0.0000 C   0  0  0  0  0  0  0  0  0  0  0  0
   -0.0000   -3.6073    0.0000 C   0  0  0  0  0  0  0  0  0  0  0  0
    1.2135   -2.7256    0.0000 N   0  0  0  0  0  0  0  0  0  0  0  0
    0.7500   -1.2990    0.0000 C   0  0  0  0  0  0  0  0  0  0  0  0
    1.5000    0.0000    0.0000 N   0  0  0  0  0  0  0  0  0  0  0  0
    0.7500    1.2990    0.0000 C   0  0  0  0  0  0  0  0  0  0  0  0
   -0.7500    1.2990    0.0000 C   0  0  0  0  0  0  0  0  0  0  0  0
   -1.5000    0.0000    0.0000 C   0  0  0  0  0  0  0  0  0  0  0  0
   -0.7500   -1.2990    0.0000 C   0  0  0  0  0  0  0  0  0  0  0  0
  1  2  2  0
  2  3  1  0
  3  4  2  0
  4  5  1  0
  5  6  2  0
  6  1  1  0
  7  8  1  0
  8  9  1  0
  9 10  1  0
 10 11  1  0
 11 12  1  0
 12 13  2  0
 14 15  2  0
 15 16  1  0
 16 17  2  0
 17 18  1  0
 18 14  1  0
 19 20  2  0
 20 21  1  0
 21 22  1  0
 22 23  2  0
 23 24  1  0
 24 25  2  0
 25 26  1  0
 26 27  2  0
 27 19  1  0
 27 22  1  0
  1 10  1  0
 12 16  1  0
 14 19  1  0
M  END

