
     RDKit          2D

 26 30  0  0  0  0  0  0  0  0999 V2000
   -5.0272    2.5424    0.0000 Br  0  0  0  0  0  0  0  0  0  0  0  0
   -4.4171    3.9127    0.0000 C   0  0  0  0  0  0  0  0  0  0  0  0
   -2.9499    4.2246    0.0000 C   0  0  0  0  0  0  0  0  0  0  0  0
   -1.8351    3.2209    0.0000 C   0  0  0  0  0  0  0  0  0  0  0  0
   -0.4086    3.6844    0.0000 C   0  0  0  0  0  0  0  0  0  0  0  0
    0.7062    2.6807    0.0000 C   0  0  0  0  0  0  0  0  0  0  0  0
    0.3943    1.2135    0.0000 C   0  0  0  0  0  0  0  0  0  0  0  0
    1.2760    0.0000    0.0000 N   0  0  0  0  0  0  0  0  0  0  0  0
    0.3943   -1.2135    0.0000 C   0  0  0  0  0  0  0  0  0  0  0  0
   -1.0323   -0.7500    0.0000 N   0  0  0  0  0  0  0  0  0  0  0  0
   -1.0323    0.7500    0.0000 C   0  0  0  0  0  0  0  0  0  0  0  0
   -2.1470    1.7537    0.0000 C   0  0  0  0  0  0  0  0  0  0  0  0
   -2.7931    5.7164    0.0000 S   0  0  0  0  0  0  0  0  0  0  0  0
   -4.1634    6.3265    0.0000 C   0  0  0  0  0  0  0  0  0  0  0  0
   -4.4752    7.7937    0.0000 C   0  0  0  0  0  0  0  0  0  0  0  0
   -5.8456    8.4038    0.0000 O   0  0  0  0  0  0  0  0  0  0  0  0
   -5.6888    9.8956    0.0000 C   0  0  0  0  0  0  0  0  0  0  0  0
   -4.2216   10.2075    0.0000 N   0  0  0  0  0  0  0  0  0  0  0  0
   -3.4716    8.9084    0.0000 C   0  0  0  0  0  0  0  0  0  0  0  0
   -1.9798    8.7516    0.0000 C   0  0  0  0  0  0  0  0  0  0  0  0
   -1.3697    7.3813    0.0000 C   0  0  0  0  0  0  0  0  0  0  0  0
    0.1221    7.2245    0.0000 N   0  0  0  0  0  0  0  0  0  0  0  0
    1.0038    8.4381    0.0000 C   0  0  0  0  0  0  0  0  0  0  0  0
    0.3937    9.8084    0.0000 N   0  0  0  0  0  0  0  0  0  0  0  0
   -1.0981    9.9652    0.0000 C   0  0  0  0  0  0  0  0  0  0  0  0
   -5.1671    5.2118    0.0000 C   0  0  0  0  0  0  0  0  0  0  0  0
  1  2  1  0
  2  3  2  0
  3  4  1  0
  4  5  2  0
  5  6  1  0
  6  7  2  0
  7  8  1  0
  8  9  2  0
  9 10  1  0
 10 11  1  0
 11 12  2  0
  3 13  1  0
 13 14  1  0
 15 14  1  6
 15 16  1  0
 16 17  1  0
 17 18  2  0
 18 19  1  0
 19 20  1  6
 20 21  2  0
 21 22  1  0
 22 23  2  0
 23 24  1  0
 24 25  2  0
 14 26  2  0
 26  2  1  0
 12  4  1  0
 19 15  1  0
 25 20  1  0
 11  7  1  0
M  END

