
     RDKit          2D

 29 31  0  0  0  0  0  0  0  0999 V2000
   -0.2010    3.3481    0.0000 C   0  0  0  0  0  0  0  0  0  0  0  0
   -1.5000    2.5981    0.0000 C   0  0  0  0  0  0  0  0  0  0  0  0
   -2.7990    1.8481    0.0000 C   0  0  0  0  0  0  0  0  0  0  0  0
   -2.2500    3.8971    0.0000 C   0  0  0  0  0  0  0  0  0  0  0  0
    3.0000    0.0000    0.0000 O   0  0  0  0  0  0  0  0  0  0  0  0
    1.5000    0.0000    0.0000 C   0  0  0  0  0  0  0  0  0  0  0  0
    0.7500   -1.2990    0.0000 C   0  0  0  0  0  0  0  0  0  0  0  0
   -0.7500   -1.2990    0.0000 C   0  0  0  0  0  0  0  0  0  0  0  0
   -1.5000    0.0000    0.0000 N   0  0  0  0  0  0  0  0  0  0  0  0
   -0.7500    1.2990    0.0000 C   0  0  0  0  0  0  0  0  0  0  0  0
    0.7500    1.2990    0.0000 N   0  0  0  0  0  0  0  0  0  0  0  0
   -2.9918   -2.7549    0.0000 C   0  0  0  0  0  0  0  0  0  0  0  0
   -3.3037   -4.2221    0.0000 N   0  0  0  0  0  0  0  0  0  0  0  0
   -2.0046   -4.9721    0.0000 C   0  0  0  0  0  0  0  0  0  0  0  0
   -0.8899   -3.9684    0.0000 S   0  0  0  0  0  0  0  0  0  0  0  0
   -1.5000   -2.5981    0.0000 C   0  0  0  0  0  0  0  0  0  0  0  0
   -0.4775   -7.0740    0.0000 O   0  0  0  0  0  0  0  0  0  0  0  0
   -1.8478   -6.4639    0.0000 C   0  0  0  0  0  0  0  0  0  0  0  0
   -3.0613   -7.3456    0.0000 C   0  0  0  0  0  0  0  0  0  0  0  0
   -2.9046   -8.8373    0.0000 C   0  0  0  0  0  0  0  0  0  0  0  0
   -5.5447   -9.2555    0.0000 N   0  0  0  0  0  0  0  0  0  0  0  0
   -6.4263  -10.4690    0.0000 C   0  0  0  0  0  0  0  0  0  0  0  0
   -5.5447  -11.6825    0.0000 C   0  0  0  0  0  0  0  0  0  0  0  0
   -4.1181  -11.2190    0.0000 C   0  0  0  0  0  0  0  0  0  0  0  0
   -4.1181   -9.7190    0.0000 C   0  0  0  0  0  0  0  0  0  0  0  0
   -7.4754   -7.5170    0.0000 N   0  0  0  0  0  0  0  0  0  0  0  0
   -6.0082   -7.8289    0.0000 C   0  0  0  0  0  0  0  0  0  0  0  0
   -5.0045   -6.7142    0.0000 O   0  0  0  0  0  0  0  0  0  0  0  0
   -3.9955   -1.6402    0.0000 C   0  0  0  0  0  0  0  0  0  0  0  0
  1  2  1  0
  2  3  1  0
  2  4  1  0
  5  6  2  0
  6  7  1  0
  7  8  2  0
  8  9  1  0
  9 10  2  0
 10 11  1  0
 11  6  1  0
 12 13  1  0
 13 14  2  0
 14 15  1  0
 15 16  1  0
 16 12  2  0
 18 17  1  6
 18 19  1  0
 19 20  1  0
 21 22  1  0
 22 23  1  0
 23 24  1  0
 24 25  1  0
 25 21  1  0
 26 27  1  0
 27 28  2  0
  2 10  1  0
  8 16  1  0
 14 18  1  0
 25 20  1  1
 21 27  1  0
 12 29  1  0
M  END

