
     RDKit          2D

 28 32  0  0  0  0  0  0  0  0999 V2000
   -9.6192   -2.5537    0.0000 O   0  0  0  0  0  0  0  0  0  0  0  0
   -8.3202   -1.8037    0.0000 C   0  0  0  0  0  0  0  0  0  0  0  0
   -8.3202   -0.3037    0.0000 C   0  0  0  0  0  0  0  0  0  0  0  0
   -7.0211    0.4463    0.0000 C   0  0  0  0  0  0  0  0  0  0  0  0
   -7.0211    1.9463    0.0000 C   0  0  0  0  0  0  0  0  0  0  0  0
   -8.2347    2.8280    0.0000 C   0  0  0  0  0  0  0  0  0  0  0  0
   -7.7711    4.2546    0.0000 C   0  0  0  0  0  0  0  0  0  0  0  0
   -6.2711    4.2546    0.0000 C   0  0  0  0  0  0  0  0  0  0  0  0
   -5.8076    2.8280    0.0000 C   0  0  0  0  0  0  0  0  0  0  0  0
   -5.7221   -0.3037    0.0000 N   0  0  0  0  0  0  0  0  0  0  0  0
   -5.7221   -1.8037    0.0000 C   0  0  0  0  0  0  0  0  0  0  0  0
   -4.4231   -2.5537    0.0000 C   0  0  0  0  0  0  0  0  0  0  0  0
   -3.1240   -1.8037    0.0000 C   0  0  0  0  0  0  0  0  0  0  0  0
   -1.7537   -2.4138    0.0000 N   0  0  0  0  0  0  0  0  0  0  0  0
   -0.7500   -1.2990    0.0000 C   0  0  0  0  0  0  0  0  0  0  0  0
    0.7500   -1.2990    0.0000 C   0  0  0  0  0  0  0  0  0  0  0  0
    1.5000   -2.5981    0.0000 C   0  0  0  0  0  0  0  0  0  0  0  0
    0.7500   -3.8971    0.0000 C   0  0  0  0  0  0  0  0  0  0  0  0
    1.5000   -5.1962    0.0000 C   0  0  0  0  0  0  0  0  0  0  0  0
    3.0000   -5.1962    0.0000 N   0  0  0  0  0  0  0  0  0  0  0  0
    3.7500   -3.8971    0.0000 N   0  0  0  0  0  0  0  0  0  0  0  0
    3.0000   -2.5981    0.0000 C   0  0  0  0  0  0  0  0  0  0  0  0
    1.5000    0.0000    0.0000 C   0  0  0  0  0  0  0  0  0  0  0  0
    0.7500    1.2990    0.0000 C   0  0  0  0  0  0  0  0  0  0  0  0
   -0.7500    1.2990    0.0000 C   0  0  0  0  0  0  0  0  0  0  0  0
   -1.5000    0.0000    0.0000 C   0  0  0  0  0  0  0  0  0  0  0  0
   -2.9672   -0.3119    0.0000 O   0  0  0  0  0  0  0  0  0  0  0  0
   -7.0211   -2.5537    0.0000 N   0  0  0  0  0  0  0  0  0  0  0  0
  1  2  2  0
  2  3  1  0
  3  4  2  0
  4  5  1  0
  5  6  1  0
  6  7  1  0
  7  8  1  0
  8  9  1  0
  4 10  1  0
 10 11  2  0
 11 12  1  0
 12 13  1  0
 13 14  2  0
 14 15  1  0
 15 16  2  0
 16 17  1  0
 17 18  2  0
 18 19  1  0
 19 20  2  0
 20 21  1  0
 21 22  2  0
 16 23  1  0
 23 24  2  0
 24 25  1  0
 25 26  2  0
 26 27  1  0
 11 28  1  0
 28  2  1  0
  9  5  1  0
 27 13  1  0
 26 15  1  0
 22 17  1  0
M  END

