
     RDKit          2D

 43 46  0  0  0  0  0  0  0  0999 V2000
   14.5625   10.4470    0.0000 C   0  0  0  0  0  0  0  0  0  0  0  0
   13.1359    9.9835    0.0000 N   0  0  0  0  0  0  0  0  0  0  0  0
   12.8240    8.5162    0.0000 C   0  0  0  0  0  0  0  0  0  0  0  0
   12.0212   10.9871    0.0000 C   0  0  0  0  0  0  0  0  0  0  0  0
   10.5946   10.5236    0.0000 C   0  0  0  0  0  0  0  0  0  0  0  0
    9.4799   11.5273    0.0000 C   0  0  0  0  0  0  0  0  0  0  0  0
    8.0533   11.0638    0.0000 N   0  0  0  0  0  0  0  0  0  0  0  0
    6.9386   12.0675    0.0000 C   0  0  0  0  0  0  0  0  0  0  0  0
    7.2504   13.5347    0.0000 O   0  0  0  0  0  0  0  0  0  0  0  0
    2.6588   10.6769    0.0000 C   0  0  0  0  0  0  0  0  0  0  0  0
    3.7735    9.6732    0.0000 C   0  0  0  0  0  0  0  0  0  0  0  0
    5.2001   10.1367    0.0000 C   0  0  0  0  0  0  0  0  0  0  0  0
    5.5120   11.6040    0.0000 C   0  0  0  0  0  0  0  0  0  0  0  0
    4.3973   12.6077    0.0000 C   0  0  0  0  0  0  0  0  0  0  0  0
    2.9707   12.1441    0.0000 C   0  0  0  0  0  0  0  0  0  0  0  0
    2.0351    7.7425    0.0000 O   0  0  0  0  0  0  0  0  0  0  0  0
    0.9204    8.7462    0.0000 C   0  0  0  0  0  0  0  0  0  0  0  0
   -0.5062    8.2826    0.0000 N   0  0  0  0  0  0  0  0  0  0  0  0
    1.2322   10.2134    0.0000 N   0  0  0  0  0  0  0  0  0  0  0  0
   -1.4418    3.8810    0.0000 C   0  0  0  0  0  0  0  0  0  0  0  0
   -0.0152    4.3445    0.0000 C   0  0  0  0  0  0  0  0  0  0  0  0
    0.2966    5.8117    0.0000 C   0  0  0  0  0  0  0  0  0  0  0  0
   -0.8181    6.8154    0.0000 C   0  0  0  0  0  0  0  0  0  0  0  0
   -2.2447    6.3519    0.0000 C   0  0  0  0  0  0  0  0  0  0  0  0
   -2.5565    4.8847    0.0000 C   0  0  0  0  0  0  0  0  0  0  0  0
    1.5000    0.0000    0.0000 C   0  0  0  0  0  0  0  0  0  0  0  0
    0.7500   -1.2990    0.0000 C   0  0  0  0  0  0  0  0  0  0  0  0
   -0.7500   -1.2990    0.0000 C   0  0  0  0  0  0  0  0  0  0  0  0
   -1.5000    0.0000    0.0000 C   0  0  0  0  0  0  0  0  0  0  0  0
   -2.9672    0.3119    0.0000 N   0  0  0  0  0  0  0  0  0  0  0  0
   -3.1240    1.8037    0.0000 C   0  0  0  0  0  0  0  0  0  0  0  0
   -1.7537    2.4138    0.0000 N   0  0  0  0  0  0  0  0  0  0  0  0
   -0.7500    1.2990    0.0000 C   0  0  0  0  0  0  0  0  0  0  0  0
    0.7500    1.2990    0.0000 N   0  0  0  0  0  0  0  0  0  0  0  0
   -9.6192    2.5537    0.0000 C   0  0  0  0  0  0  0  0  0  0  0  0
   -8.3202    1.8037    0.0000 O   0  0  0  0  0  0  0  0  0  0  0  0
   -7.0211    2.5537    0.0000 C   0  0  0  0  0  0  0  0  0  0  0  0
   -5.7221    1.8037    0.0000 C   0  0  0  0  0  0  0  0  0  0  0  0
   -4.4231    2.5537    0.0000 N   0  0  0  0  0  0  0  0  0  0  0  0
   -4.4231    4.0537    0.0000 C   0  0  0  0  0  0  0  0  0  0  0  0
    5.2500   -1.2990    0.0000 C   0  0  0  0  0  0  0  0  0  0  0  0
    3.7500   -1.2990    0.0000 C   0  0  0  0  0  0  0  0  0  0  0  0
    3.0000    0.0000    0.0000 N   0  0  0  0  0  0  0  0  0  0  0  0
  1  2  1  0
  2  3  1  0
  2  4  1  0
  4  5  1  0
  5  6  1  0
  6  7  1  0
  7  8  1  0
  8  9  2  0
 10 11  2  0
 11 12  1  0
 12 13  2  0
 13 14  1  0
 14 15  2  0
 15 10  1  0
 16 17  2  0
 17 18  1  0
 17 19  1  0
 20 21  2  0
 21 22  1  0
 22 23  2  0
 23 24  1  0
 24 25  2  0
 25 20  1  0
 26 27  2  0
 27 28  1  0
 28 29  2  0
 29 30  1  0
 30 31  2  0
 31 32  1  0
 32 33  1  0
 33 34  2  0
 34 26  1  0
 33 29  1  0
 35 36  1  0
 36 37  1  0
 37 38  1  0
 38 39  1  0
 39 40  1  0
 41 42  1  0
 42 43  1  0
  8 13  1  0
 10 19  1  0
 18 23  1  0
 20 32  1  0
 31 39  1  0
 26 43  1  0
M  END

