
     RDKit          2D

 44 49  0  0  0  0  0  0  0  0999 V2000
   -1.5000   -2.5981    0.0000 C   0  0  0  0  0  0  0  0  0  0  0  0
    0.7500   -1.2990    0.0000 C   0  0  0  0  0  0  0  0  0  0  0  0
    1.5000    0.0000    0.0000 N   0  0  0  0  0  0  0  0  0  0  0  0
    0.7500    1.2990    0.0000 C   0  0  0  0  0  0  0  0  0  0  0  0
   -0.7500    1.2990    0.0000 C   0  0  0  0  0  0  0  0  0  0  0  0
   -1.5000    0.0000    0.0000 N   0  0  0  0  0  0  0  0  0  0  0  0
   -0.7500   -1.2990    0.0000 C   0  0  0  0  0  0  0  0  0  0  0  0
    1.5000    5.1962    0.0000 C   0  0  0  0  0  0  0  0  0  0  0  0
    3.0000    5.1962    0.0000 C   0  0  0  0  0  0  0  0  0  0  0  0
    3.7500    3.8971    0.0000 C   0  0  0  0  0  0  0  0  0  0  0  0
    3.0000    2.5981    0.0000 C   0  0  0  0  0  0  0  0  0  0  0  0
    1.5000    2.5981    0.0000 C   0  0  0  0  0  0  0  0  0  0  0  0
    0.7500    3.8971    0.0000 C   0  0  0  0  0  0  0  0  0  0  0  0
    4.5000   -0.0000    0.0000 F   0  0  0  0  0  0  0  0  0  0  0  0
    3.7500    1.2990    0.0000 C   0  0  0  0  0  0  0  0  0  0  0  0
    5.0490    2.0490    0.0000 F   0  0  0  0  0  0  0  0  0  0  0  0
    2.4510    0.5490    0.0000 F   0  0  0  0  0  0  0  0  0  0  0  0
    1.5000   10.3923    0.0000 C   0  0  0  0  0  0  0  0  0  0  0  0
    0.7500    9.0933    0.0000 C   0  0  0  0  0  0  0  0  0  0  0  0
    1.5000    7.7942    0.0000 C   0  0  0  0  0  0  0  0  0  0  0  0
    0.7500    6.4952    0.0000 N   0  0  0  0  0  0  0  0  0  0  0  0
    3.8740   -3.1027    0.0000 N   0  0  0  0  0  0  0  0  0  0  0  0
    3.1240   -4.4017    0.0000 C   0  0  0  0  0  0  0  0  0  0  0  0
    1.6568   -4.0899    0.0000 C   0  0  0  0  0  0  0  0  0  0  0  0
    0.2865   -3.4798    0.0000 C   0  0  0  0  0  0  0  0  0  0  0  0
    1.5000   -2.5981    0.0000 C   0  0  0  0  0  0  0  0  0  0  0  0
    2.8703   -1.9880    0.0000 C   0  0  0  0  0  0  0  0  0  0  0  0
    6.2475   -4.1594    0.0000 C   0  0  0  0  0  0  0  0  0  0  0  0
    7.7393   -4.0026    0.0000 C   0  0  0  0  0  0  0  0  0  0  0  0
    8.3494   -2.6323    0.0000 N   0  0  0  0  0  0  0  0  0  0  0  0
    7.4677   -1.4188    0.0000 C   0  0  0  0  0  0  0  0  0  0  0  0
    5.9759   -1.5756    0.0000 N   0  0  0  0  0  0  0  0  0  0  0  0
    5.3658   -2.9459    0.0000 C   0  0  0  0  0  0  0  0  0  0  0  0
   10.1127   -5.0594    0.0000 O   0  0  0  0  0  0  0  0  0  0  0  0
    8.6209   -5.2162    0.0000 C   0  0  0  0  0  0  0  0  0  0  0  0
    4.0134   -7.3334    0.0000 C   0  0  0  0  0  0  0  0  0  0  0  0
    5.3837   -7.9435    0.0000 C   0  0  0  0  0  0  0  0  0  0  0  0
    6.3874   -6.8288    0.0000 C   0  0  0  0  0  0  0  0  0  0  0  0
    5.6374   -5.5297    0.0000 C   0  0  0  0  0  0  0  0  0  0  0  0
    4.1701   -5.8416    0.0000 S   0  0  0  0  0  0  0  0  0  0  0  0
   -1.1828   -7.3334    0.0000 C   0  0  0  0  0  0  0  0  0  0  0  0
    0.1162   -8.0834    0.0000 C   0  0  0  0  0  0  0  0  0  0  0  0
    1.4153   -7.3334    0.0000 C   0  0  0  0  0  0  0  0  0  0  0  0
    2.7143   -8.0834    0.0000 S   0  0  0  0  0  0  0  0  0  0  0  0
  2  3  2  0
  3  4  1  0
  4  5  2  0
  5  6  1  0
  6  7  2  0
  7  2  1  0
  8  9  2  0
  9 10  1  0
 10 11  2  0
 11 12  1  0
 12 13  2  0
 13  8  1  0
 14 15  1  0
 15 16  1  0
 15 17  1  0
 18 19  1  0
 19 20  1  0
 20 21  1  0
 22 23  1  0
 24 23  1  1
 24 25  1  0
 25 26  1  0
 26 27  1  0
 27 22  1  0
 26 24  1  0
 28 29  2  0
 29 30  1  0
 30 31  2  0
 31 32  1  0
 32 33  2  0
 33 28  1  0
 34 35  1  0
 36 37  2  0
 37 38  1  0
 38 39  2  0
 39 40  1  0
 40 36  1  0
 41 42  1  0
 42 43  1  0
 43 44  1  0
  1  7  1  0
  4 12  1  0
 11 15  1  0
  8 21  1  0
 26  2  1  6
 22 33  1  0
 29 35  1  0
 28 39  1  0
 36 44  1  0
M  END

