
     RDKit          2D

 47 53  0  0  0  0  0  0  0  0999 V2000
  -12.4101  -10.8604    0.0000 C   0  0  0  0  0  0  0  0  0  0  0  0
  -11.5284   -9.6469    0.0000 C   0  0  0  0  0  0  0  0  0  0  0  0
  -12.1385   -8.2766    0.0000 N   0  0  0  0  0  0  0  0  0  0  0  0
  -13.6303   -8.1198    0.0000 C   0  0  0  0  0  0  0  0  0  0  0  0
  -11.2569   -7.0630    0.0000 C   0  0  0  0  0  0  0  0  0  0  0  0
   -9.7651   -7.2198    0.0000 C   0  0  0  0  0  0  0  0  0  0  0  0
   -8.8834   -6.0063    0.0000 C   0  0  0  0  0  0  0  0  0  0  0  0
   -7.3834   -6.0063    0.0000 C   0  0  0  0  0  0  0  0  0  0  0  0
   -6.9199   -4.5797    0.0000 N   0  0  0  0  0  0  0  0  0  0  0  0
   -5.4933   -4.1162    0.0000 N   0  0  0  0  0  0  0  0  0  0  0  0
   -4.3786   -5.1199    0.0000 C   0  0  0  0  0  0  0  0  0  0  0  0
   -2.9520   -4.6564    0.0000 C   0  0  0  0  0  0  0  0  0  0  0  0
   -2.6401   -3.1891    0.0000 C   0  0  0  0  0  0  0  0  0  0  0  0
   -1.2135   -2.7256    0.0000 N   0  0  0  0  0  0  0  0  0  0  0  0
   -0.0000   -3.6073    0.0000 N   0  0  0  0  0  0  0  0  0  0  0  0
    1.2135   -2.7256    0.0000 C   0  0  0  0  0  0  0  0  0  0  0  0
    0.7500   -1.2990    0.0000 C   0  0  0  0  0  0  0  0  0  0  0  0
    1.5000    0.0000    0.0000 C   0  0  0  0  0  0  0  0  0  0  0  0
    0.7500    1.2990    0.0000 C   0  0  0  0  0  0  0  0  0  0  0  0
    1.5000    2.5981    0.0000 C   0  0  0  0  0  0  0  0  0  0  0  0
    3.0000    2.5981    0.0000 C   0  0  0  0  0  0  0  0  0  0  0  0
    3.7500    3.8971    0.0000 C   0  0  0  0  0  0  0  0  0  0  0  0
    3.0000    5.1962    0.0000 C   0  0  0  0  0  0  0  0  0  0  0  0
    3.7500    6.4952    0.0000 F   0  0  0  0  0  0  0  0  0  0  0  0
    1.5000    5.1962    0.0000 C   0  0  0  0  0  0  0  0  0  0  0  0
    0.7500    3.8971    0.0000 C   0  0  0  0  0  0  0  0  0  0  0  0
   -0.7500    1.2990    0.0000 C   0  0  0  0  0  0  0  0  0  0  0  0
   -1.5000    0.0000    0.0000 C   0  0  0  0  0  0  0  0  0  0  0  0
   -0.7500   -1.2990    0.0000 C   0  0  0  0  0  0  0  0  0  0  0  0
   -3.7548   -2.1855    0.0000 C   0  0  0  0  0  0  0  0  0  0  0  0
   -5.1814   -2.6490    0.0000 C   0  0  0  0  0  0  0  0  0  0  0  0
   -8.1334   -3.6980    0.0000 C   0  0  0  0  0  0  0  0  0  0  0  0
   -8.1334   -2.1980    0.0000 C   0  0  0  0  0  0  0  0  0  0  0  0
   -6.8344   -1.4480    0.0000 N   0  0  0  0  0  0  0  0  0  0  0  0
   -6.8344    0.0520    0.0000 C   0  0  0  0  0  0  0  0  0  0  0  0
   -5.5353    0.8020    0.0000 N   0  0  0  0  0  0  0  0  0  0  0  0
   -8.1334    0.8020    0.0000 N   0  0  0  0  0  0  0  0  0  0  0  0
   -9.4324    0.0520    0.0000 C   0  0  0  0  0  0  0  0  0  0  0  0
   -9.4324   -1.4480    0.0000 C   0  0  0  0  0  0  0  0  0  0  0  0
  -10.7315   -2.1980    0.0000 C   0  0  0  0  0  0  0  0  0  0  0  0
  -10.7315   -3.6980    0.0000 C   0  0  0  0  0  0  0  0  0  0  0  0
  -12.0305   -4.4480    0.0000 C   0  0  0  0  0  0  0  0  0  0  0  0
  -13.3295   -3.6980    0.0000 C   0  0  0  0  0  0  0  0  0  0  0  0
  -13.3295   -2.1980    0.0000 C   0  0  0  0  0  0  0  0  0  0  0  0
  -12.0305   -1.4480    0.0000 N   0  0  0  0  0  4  0  0  0  0  0  0
  -12.0305    0.0520    0.0000 F   0  0  0  0  0  0  0  0  0  0  0  0
   -9.3469   -4.5797    0.0000 N   0  0  0  0  0  0  0  0  0  0  0  0
  1  2  1  0
  2  3  1  0
  3  4  1  0
  3  5  1  0
  5  6  1  0
  6  7  1  0
  7  8  2  0
  8  9  1  0
  9 10  1  0
 10 11  1  0
 11 12  1  0
 12 13  1  0
 13 14  1  0
 14 15  1  0
 15 16  2  0
 16 17  1  0
 17 18  2  0
 18 19  1  0
 19 20  1  0
 20 21  2  0
 21 22  1  0
 22 23  2  0
 23 24  1  0
 23 25  1  0
 25 26  2  0
 19 27  2  0
 27 28  1  0
 28 29  2  0
 13 30  1  0
 30 31  1  0
  9 32  1  0
 32 33  1  0
 33 34  2  0
 34 35  1  0
 35 36  1  0
 35 37  2  0
 37 38  1  0
 38 39  2  0
 39 40  1  0
 40 41  2  0
 41 42  1  0
 42 43  2  0
 43 44  1  0
 44 45  2  0
 45 46  1  0
 32 47  2  0
 47  7  1  0
 31 10  1  0
 39 33  1  0
 45 40  1  0
 29 14  1  0
 29 17  1  0
 26 20  1  0
M  CHG  1  45   1
M  END

