
     RDKit          2D

 39 43  0  0  0  0  0  0  0  0999 V2000
  -11.3868   -4.7551    0.0000 F   0  0  0  0  0  0  0  0  0  0  0  0
   -7.5785   -4.0051    0.0000 N   0  0  0  0  0  0  0  0  0  0  0  0
   -7.5785   -5.5051    0.0000 C   0  0  0  0  0  0  0  0  0  0  0  0
   -9.0051   -5.9687    0.0000 C   0  0  0  0  0  0  0  0  0  0  0  0
   -9.8868   -4.7551    0.0000 C   0  0  0  0  0  0  0  0  0  0  0  0
   -9.0051   -3.5416    0.0000 C   0  0  0  0  0  0  0  0  0  0  0  0
   -6.5218   -1.6317    0.0000 C   0  0  0  0  0  0  0  0  0  0  0  0
   -6.3650   -3.1235    0.0000 C   0  0  0  0  0  0  0  0  0  0  0  0
   -5.3083    0.7500    0.0000 C   0  0  0  0  0  0  0  0  0  0  0  0
   -3.8817    1.2135    0.0000 N   0  0  0  0  0  0  0  0  0  0  0  0
   -3.0000    0.0000    0.0000 C   0  0  0  0  0  0  0  0  0  0  0  0
   -3.8817   -1.2135    0.0000 C   0  0  0  0  0  0  0  0  0  0  0  0
   -5.3083   -0.7500    0.0000 N   0  0  0  0  0  0  0  0  0  0  0  0
    1.5000    0.0000    0.0000 C   0  0  0  0  0  0  0  0  0  0  0  0
    0.7500   -1.2990    0.0000 C   0  0  0  0  0  0  0  0  0  0  0  0
   -0.7500   -1.2990    0.0000 C   0  0  0  0  0  0  0  0  0  0  0  0
   -1.5000    0.0000    0.0000 C   0  0  0  0  0  0  0  0  0  0  0  0
   -0.7500    1.2990    0.0000 C   0  0  0  0  0  0  0  0  0  0  0  0
    0.7500    1.2990    0.0000 C   0  0  0  0  0  0  0  0  0  0  0  0
    3.0000    0.0000    0.0000 F   0  0  0  0  0  0  0  0  0  0  0  0
   -8.9488    3.3950    0.0000 N   0  0  0  0  0  0  0  0  0  0  0  0
   -9.1056    1.9033    0.0000 C   0  0  0  0  0  0  0  0  0  0  0  0
   -7.8921    1.0216    0.0000 C   0  0  0  0  0  0  0  0  0  0  0  0
   -6.5218    1.6317    0.0000 C   0  0  0  0  0  0  0  0  0  0  0  0
   -6.3650    3.1235    0.0000 C   0  0  0  0  0  0  0  0  0  0  0  0
   -7.5785    4.0051    0.0000 C   0  0  0  0  0  0  0  0  0  0  0  0
  -10.1624    5.7767    0.0000 N   0  0  0  0  0  0  0  0  0  0  0  0
  -11.5889    6.2402    0.0000 N   0  0  0  0  0  0  0  0  0  0  0  0
  -12.4706    5.0267    0.0000 C   0  0  0  0  0  0  0  0  0  0  0  0
  -11.5889    3.8132    0.0000 N   0  0  0  0  0  0  0  0  0  0  0  0
  -10.1624    4.2767    0.0000 C   0  0  0  0  0  0  0  0  0  0  0  0
  -13.9706    5.0267    0.0000 N   0  0  0  0  0  0  0  0  0  0  0  0
   -5.7786   13.7788    0.0000 C   0  0  0  0  0  0  0  0  0  0  0  0
   -6.9922   12.8971    0.0000 C   0  0  0  0  0  0  0  0  0  0  0  0
   -6.8354   11.4053    0.0000 C   0  0  0  0  0  0  0  0  0  0  0  0
   -8.0489   10.5236    0.0000 C   0  0  0  0  0  0  0  0  0  0  0  0
   -7.8921    9.0319    0.0000 C   0  0  0  0  0  0  0  0  0  0  0  0
   -9.1056    8.1502    0.0000 C   0  0  0  0  0  0  0  0  0  0  0  0
   -8.9488    6.6584    0.0000 O   0  0  0  0  0  0  0  0  0  0  0  0
  2  3  1  0
  3  4  1  0
  4  5  1  0
  5  6  1  0
  6  2  1  0
  7  8  1  0
  9 10  2  0
 10 11  1  0
 11 12  2  0
 12 13  1  0
 13  9  1  0
 14 15  2  0
 15 16  1  0
 16 17  2  0
 17 18  1  0
 18 19  2  0
 19 14  1  0
 21 22  1  0
 22 23  1  0
 23 24  1  0
 24 25  1  0
 25 26  1  0
 26 21  1  0
 27 28  1  0
 28 29  2  0
 29 30  1  0
 30 31  2  0
 31 27  1  0
 33 34  1  0
 34 35  1  0
 35 36  1  0
 36 37  1  0
 37 38  1  0
 38 39  1  0
  5  1  1  6
  2  8  1  0
  7 13  1  0
 11 17  1  0
 14 20  1  0
  9 24  1  0
 21 31  1  0
 29 32  1  0
 27 39  1  0
M  ISO  2   1  18  20  18
M  END

