
     RDKit          2D

 36 38  0  0  0  0  0  0  0  0999 V2000
   -6.9240    8.7293    0.0000 Cl  0  0  0  0  0  0  0  0  0  0  0  0
   -4.2546    8.8692    0.0000 C   0  0  0  0  0  0  0  0  0  0  0  0
   -3.1399    7.8655    0.0000 S   0  0  0  0  0  0  0  0  0  0  0  0
   -3.7500    6.4952    0.0000 C   0  0  0  0  0  0  0  0  0  0  0  0
   -5.2418    6.6520    0.0000 N   0  0  0  0  0  0  0  0  0  0  0  0
   -5.5537    8.1192    0.0000 C   0  0  0  0  0  0  0  0  0  0  0  0
   -1.5000    7.7942    0.0000 N   0  0  0  0  0  0  0  0  0  0  0  0
   -0.7500    6.4952    0.0000 C   0  0  0  0  0  0  0  0  0  0  0  0
   -1.5000    5.1962    0.0000 C   0  0  0  0  0  0  0  0  0  0  0  0
   -3.0000    5.1962    0.0000 C   0  0  0  0  0  0  0  0  0  0  0  0
   -0.7500    3.8971    0.0000 N   0  0  0  0  0  0  0  0  0  0  0  0
   -1.5000    2.5981    0.0000 C   0  0  0  0  0  0  0  0  0  0  0  0
   -3.0000    2.5981    0.0000 O   0  0  0  0  0  0  0  0  0  0  0  0
    1.5000    0.0000    0.0000 C   0  0  0  0  0  0  0  0  0  0  0  0
    0.7500   -1.2990    0.0000 C   0  0  0  0  0  0  0  0  0  0  0  0
   -0.7500   -1.2990    0.0000 C   0  0  0  0  0  0  0  0  0  0  0  0
   -1.5000    0.0000    0.0000 C   0  0  0  0  0  0  0  0  0  0  0  0
   -0.7500    1.2990    0.0000 C   0  0  0  0  0  0  0  0  0  0  0  0
    0.7500    1.2990    0.0000 C   0  0  0  0  0  0  0  0  0  0  0  0
   -9.7500    3.8971    0.0000 F   0  0  0  0  0  0  0  0  0  0  0  0
   -8.2500    3.8971    0.0000 C   0  0  0  0  0  0  0  0  0  0  0  0
   -7.5000    2.5981    0.0000 C   0  0  0  0  0  0  0  0  0  0  0  0
   -6.0000    2.5981    0.0000 O   0  0  0  0  0  0  0  0  0  0  0  0
   -5.2500    1.2990    0.0000 C   0  0  0  0  0  0  0  0  0  0  0  0
   -3.7500    1.2990    0.0000 C   0  0  0  0  0  0  0  0  0  0  0  0
   -3.0000    0.0000    0.0000 O   0  0  0  0  0  0  0  0  0  0  0  0
    3.0000    0.0000    0.0000 F   0  0  0  0  0  0  0  0  0  0  0  0
   -2.7988   11.1110    0.0000 N   0  0  0  0  0  0  0  0  0  0  0  0
   -3.1106   12.5782    0.0000 N   0  0  0  0  0  0  0  0  0  0  0  0
   -4.6024   12.7350    0.0000 C   0  0  0  0  0  0  0  0  0  0  0  0
   -5.2125   11.3647    0.0000 C   0  0  0  0  0  0  0  0  0  0  0  0
   -4.0978   10.3610    0.0000 C   0  0  0  0  0  0  0  0  0  0  0  0
   -6.6798   11.0528    0.0000 Cl  0  0  0  0  0  0  0  0  0  0  0  0
    0.9986   12.2642    0.0000 C   0  0  0  0  0  0  0  0  0  0  0  0
   -0.2149   11.3826    0.0000 C   0  0  0  0  0  0  0  0  0  0  0  0
   -1.4285   10.5009    0.0000 C   0  0  0  0  0  0  0  0  0  0  0  0
  2  3  1  0
  3  4  1  0
  4  5  2  0
  5  6  1  0
  6  2  2  0
  7  8  1  0
  9  8  1  1
  9 10  1  0
  9 11  1  0
 11 12  1  0
 12 13  2  0
 14 15  2  0
 15 16  1  0
 16 17  2  0
 17 18  1  0
 18 19  2  0
 19 14  1  0
 20 21  1  0
 21 22  1  0
 22 23  1  0
 23 24  1  0
 24 25  1  0
 25 26  1  0
 28 29  1  0
 29 30  2  0
 30 31  1  0
 31 32  2  0
 32 28  1  0
 34 35  3  0
 35 36  1  0
  1  6  1  0
  4 10  1  0
 12 18  1  0
 17 26  1  0
 14 27  1  0
  2 32  1  0
 31 33  1  0
 28 36  1  0
M  ISO  1  27  18
M  END

