
     RDKit          2D

 43 47  0  0  0  0  0  0  0  0999 V2000
    0.7500   -1.2990    0.0000 C   0  0  0  0  0  0  0  0  0  0  0  0
    1.5000    0.0000    0.0000 C   0  0  0  0  0  0  0  0  0  0  0  0
    0.7500    1.2990    0.0000 N   0  0  0  0  0  0  0  0  0  0  0  0
   -0.7500    1.2990    0.0000 C   0  0  0  0  0  0  0  0  0  0  0  0
   -1.5000    0.0000    0.0000 N   0  0  0  0  0  0  0  0  0  0  0  0
   -0.7500   -1.2990    0.0000 C   0  0  0  0  0  0  0  0  0  0  0  0
    3.0000   -2.5981    0.0000 C   0  0  0  0  0  0  0  0  0  0  0  0
    3.7500   -3.8971    0.0000 N   0  0  0  0  0  0  0  0  0  0  0  0
    3.0000   -5.1962    0.0000 C   0  0  0  0  0  0  0  0  0  0  0  0
    1.5000   -5.1962    0.0000 N   0  0  0  0  0  0  0  0  0  0  0  0
    0.7500   -3.8971    0.0000 C   0  0  0  0  0  0  0  0  0  0  0  0
    1.5000   -2.5981    0.0000 C   0  0  0  0  0  0  0  0  0  0  0  0
   -3.0000   -2.5981    0.0000 N   0  0  0  0  0  0  0  0  0  0  0  0
   -3.7500   -3.8971    0.0000 C   0  0  0  0  0  0  0  0  0  0  0  0
   -3.0000   -5.1962    0.0000 C   0  0  0  0  0  0  0  0  0  0  0  0
   -1.5000   -5.1962    0.0000 C   0  0  0  0  0  0  0  0  0  0  0  0
   -0.7500   -3.8971    0.0000 C   0  0  0  0  0  0  0  0  0  0  0  0
   -1.5000   -2.5981    0.0000 C   0  0  0  0  0  0  0  0  0  0  0  0
   -5.2418   -1.1422    0.0000 C   0  0  0  0  0  0  0  0  0  0  0  0
   -5.5537    0.3250    0.0000 N   0  0  0  0  0  0  0  0  0  0  0  0
   -4.2546    1.0750    0.0000 C   0  0  0  0  0  0  0  0  0  0  0  0
   -3.1399    0.0713    0.0000 C   0  0  0  0  0  0  0  0  0  0  0  0
   -3.7500   -1.2990    0.0000 N   0  0  0  0  0  0  0  0  0  0  0  0
   -6.3681    5.8219    0.0000 C   0  0  0  0  0  0  0  0  0  0  0  0
   -5.1546    4.9402    0.0000 C   0  0  0  0  0  0  0  0  0  0  0  0
   -5.3113    3.4484    0.0000 C   0  0  0  0  0  0  0  0  0  0  0  0
   -4.0978    2.5668    0.0000 N   0  0  0  0  0  0  0  0  0  0  0  0
   -8.4815   10.5688    0.0000 C   0  0  0  0  0  0  0  0  0  0  0  0
   -7.2680    9.6871    0.0000 C   0  0  0  0  0  0  0  0  0  0  0  0
   -7.4248    8.1954    0.0000 C   0  0  0  0  0  0  0  0  0  0  0  0
   -6.2113    7.3137    0.0000 N   0  0  0  0  0  0  0  0  0  0  0  0
   -6.7856   -4.7983    0.0000 C   0  0  0  0  0  0  0  0  0  0  0  0
   -8.2529   -4.4864    0.0000 C   0  0  0  0  0  0  0  0  0  0  0  0
   -8.7164   -3.0598    0.0000 N   0  0  0  0  0  0  0  0  0  0  0  0
   -7.7127   -1.9451    0.0000 C   0  0  0  0  0  0  0  0  0  0  0  0
   -6.2455   -2.2570    0.0000 C   0  0  0  0  0  0  0  0  0  0  0  0
   -5.7820   -3.6835    0.0000 N   0  0  0  0  0  0  0  0  0  0  0  0
   -8.3295   -8.4543    0.0000 F   0  0  0  0  0  0  0  0  0  0  0  0
   -7.3258   -7.3396    0.0000 C   0  0  0  0  0  0  0  0  0  0  0  0
   -6.2111   -8.3433    0.0000 F   0  0  0  0  0  0  0  0  0  0  0  0
   -8.4405   -6.3359    0.0000 F   0  0  0  0  0  0  0  0  0  0  0  0
   -6.3221   -6.2248    0.0000 O   0  0  0  0  0  0  0  0  0  0  0  0
    3.7500   -1.2990    0.0000 N   0  0  0  0  0  0  0  0  0  0  0  0
  1  2  2  0
  2  3  1  0
  3  4  2  0
  4  5  1  0
  5  6  2  0
  6  1  1  0
  7  8  2  0
  8  9  1  0
  9 10  2  0
 10 11  1  0
 11 12  2  0
 12  7  1  0
 13 14  1  0
 14 15  1  0
 15 16  1  0
 16 17  1  0
 17 18  1  0
 18 13  1  0
 19 20  2  0
 20 21  1  0
 21 22  2  0
 22 23  1  0
 23 19  1  0
 24 25  1  0
 25 26  1  0
 26 27  1  0
 28 29  1  0
 29 30  1  0
 30 31  1  0
 32 33  2  0
 33 34  1  0
 34 35  2  0
 35 36  1  0
 36 37  2  0
 37 32  1  0
 38 39  1  0
 39 40  1  0
 39 41  1  0
 39 42  1  0
  1 12  1  0
 17 11  1  1
 13 23  1  0
 21 27  1  0
 24 31  1  0
 19 36  1  0
 32 42  1  0
  7 43  1  0
M  END

