
     RDKit          2D

 37 40  0  0  0  0  0  0  0  0999 V2000
   -6.6232   -1.2320    0.0000 O   0  0  0  0  0  0  0  0  0  0  0  0
   -5.5085   -0.2283    0.0000 C   0  0  0  0  0  0  0  0  0  0  0  0
   -5.8204    1.2389    0.0000 O   0  0  0  0  0  0  0  0  0  0  0  0
   -4.0819   -0.6918    0.0000 C   0  0  0  0  0  0  0  0  0  0  0  0
    1.5000    0.0000    0.0000 C   0  0  0  0  0  0  0  0  0  0  0  0
    0.7500   -1.2990    0.0000 C   0  0  0  0  0  0  0  0  0  0  0  0
   -0.7500   -1.2990    0.0000 C   0  0  0  0  0  0  0  0  0  0  0  0
   -1.5000    0.0000    0.0000 C   0  0  0  0  0  0  0  0  0  0  0  0
   -0.7500    1.2990    0.0000 C   0  0  0  0  0  0  0  0  0  0  0  0
    0.7500    1.2990    0.0000 C   0  0  0  0  0  0  0  0  0  0  0  0
   -1.7537    2.4138    0.0000 C   0  0  0  0  0  0  0  0  0  0  0  0
   -3.1240    1.8037    0.0000 C   0  0  0  0  0  0  0  0  0  0  0  0
   -2.9672    0.3119    0.0000 N   0  0  0  0  0  0  0  0  0  0  0  0
   -4.6955    6.2947    0.0000 C   0  0  0  0  0  0  0  0  0  0  0  0
   -3.9455    7.5938    0.0000 C   0  0  0  0  0  0  0  0  0  0  0  0
   -2.4455    7.5938    0.0000 C   0  0  0  0  0  0  0  0  0  0  0  0
   -1.6955    6.2947    0.0000 N   0  0  0  0  0  0  0  0  0  0  0  0
   -0.2283    5.9829    0.0000 N   0  0  0  0  0  0  0  0  0  0  0  0
   -0.0715    4.4911    0.0000 C   0  0  0  0  0  0  0  0  0  0  0  0
   -1.4418    3.8810    0.0000 C   0  0  0  0  0  0  0  0  0  0  0  0
   -2.4455    4.9957    0.0000 C   0  0  0  0  0  0  0  0  0  0  0  0
   -3.9455    4.9957    0.0000 N   0  0  0  0  0  0  0  0  0  0  0  0
   -1.6955   16.6870    0.0000 F   0  0  0  0  0  0  0  0  0  0  0  0
   -2.4455   15.3880    0.0000 C   0  0  0  0  0  0  0  0  0  0  0  0
   -1.6955   14.0890    0.0000 C   0  0  0  0  0  0  0  0  0  0  0  0
   -2.4455   12.7899    0.0000 O   0  0  0  0  0  0  0  0  0  0  0  0
   -1.6955   11.4909    0.0000 C   0  0  0  0  0  0  0  0  0  0  0  0
   -2.4455   10.1918    0.0000 C   0  0  0  0  0  0  0  0  0  0  0  0
   -1.6955    8.8928    0.0000 O   0  0  0  0  0  0  0  0  0  0  0  0
   -6.1955    6.2947    0.0000 N   0  0  0  0  0  0  0  0  0  0  0  0
   -8.4455    7.5938    0.0000 C   0  0  0  0  0  0  0  0  0  0  0  0
   -6.9455    7.5938    0.0000 C   0  0  0  0  0  0  0  0  0  0  0  0
   -6.1955    8.8928    0.0000 C   0  0  0  0  0  0  0  0  0  0  0  0
    5.2500   -1.2990    0.0000 C   0  0  0  0  0  0  0  0  0  0  0  0
    3.7500   -1.2990    0.0000 C   0  0  0  0  0  0  0  0  0  0  0  0
    3.0000   -2.5981    0.0000 O   0  0  0  0  0  0  0  0  0  0  0  0
    3.0000    0.0000    0.0000 N   0  0  0  0  0  0  0  0  0  0  0  0
  1  2  2  0
  2  3  1  0
  2  4  1  0
  5  6  2  0
  6  7  1  0
  7  8  2  0
  8  9  1  0
  9 10  2  0
  9 11  1  0
 11 12  2  0
 12 13  1  0
 10  5  1  0
 13  8  1  0
 14 15  1  0
 15 16  2  0
 16 17  1  0
 17 18  1  0
 18 19  2  0
 19 20  1  0
 20 21  2  0
 21 22  1  0
 22 14  2  0
 21 17  1  0
 23 24  1  0
 24 25  1  0
 25 26  1  0
 26 27  1  0
 27 28  1  0
 28 29  1  0
 31 32  1  0
 32 33  1  0
 34 35  1  0
 35 36  2  0
 35 37  1  0
  4 13  1  0
 11 20  1  0
 16 29  1  0
 14 30  1  0
 30 32  1  0
  5 37  1  0
M  END

