
     RDKit          2D

 36 40  0  0  0  0  0  0  0  0999 V2000
    0.7500   -1.2990    0.0000 N   0  0  0  0  0  0  0  0  0  0  0  0
    1.5000    0.0000    0.0000 C   0  0  0  0  0  0  0  0  0  0  0  0
    0.7500    1.2990    0.0000 C   0  0  0  0  0  0  0  0  0  0  0  0
   -0.7500    1.2990    0.0000 O   0  0  0  0  0  0  0  0  0  0  0  0
   -1.5000    0.0000    0.0000 C   0  0  0  0  0  0  0  0  0  0  0  0
   -0.7500   -1.2990    0.0000 C   0  0  0  0  0  0  0  0  0  0  0  0
    3.3037   -4.2221    0.0000 C   0  0  0  0  0  0  0  0  0  0  0  0
    2.0046   -4.9721    0.0000 N   0  0  0  0  0  0  0  0  0  0  0  0
    0.8899   -3.9684    0.0000 C   0  0  0  0  0  0  0  0  0  0  0  0
    1.5000   -2.5981    0.0000 N   0  0  0  0  0  0  0  0  0  0  0  0
    2.9918   -2.7549    0.0000 N   0  0  0  0  0  0  0  0  0  0  0  0
   -0.5773   -4.2803    0.0000 C   0  0  0  0  0  0  0  0  0  0  0  0
   -2.0627   -4.0715    0.0000 C   0  0  0  0  0  0  0  0  0  0  0  0
   -1.1392   -2.8895    0.0000 C   0  0  0  0  0  0  0  0  0  0  0  0
    0.9741   -5.7270    0.0000 O   0  0  0  0  0  0  0  0  0  0  0  0
   -0.5250   -5.7793    0.0000 S   0  0  0  0  0  0  0  0  0  0  0  0
   -2.0241   -5.8317    0.0000 O   0  0  0  0  0  0  0  0  0  0  0  0
   -1.6924   -9.5724    0.0000 C   0  0  0  0  0  0  0  0  0  0  0  0
   -0.3679  -10.2766    0.0000 C   0  0  0  0  0  0  0  0  0  0  0  0
    0.9041   -9.4817    0.0000 C   0  0  0  0  0  0  0  0  0  0  0  0
    0.8518   -7.9826    0.0000 C   0  0  0  0  0  0  0  0  0  0  0  0
   -0.4726   -7.2784    0.0000 C   0  0  0  0  0  0  0  0  0  0  0  0
   -1.7447   -8.0733    0.0000 C   0  0  0  0  0  0  0  0  0  0  0  0
   -2.9644  -10.3673    0.0000 F   0  0  0  0  0  0  0  0  0  0  0  0
    7.4146   -6.0524    0.0000 C   0  0  0  0  0  0  0  0  0  0  0  0
    6.2011   -6.9341    0.0000 C   0  0  0  0  0  0  0  0  0  0  0  0
    4.8308   -6.3240    0.0000 C   0  0  0  0  0  0  0  0  0  0  0  0
    4.6740   -4.8322    0.0000 C   0  0  0  0  0  0  0  0  0  0  0  0
    5.8875   -3.9505    0.0000 C   0  0  0  0  0  0  0  0  0  0  0  0
    7.2578   -4.5606    0.0000 N   0  0  0  0  0  0  0  0  0  0  0  0
    3.9308  -10.1892    0.0000 F   0  0  0  0  0  0  0  0  0  0  0  0
    3.7740   -8.6974    0.0000 C   0  0  0  0  0  0  0  0  0  0  0  0
    2.2822   -8.8542    0.0000 F   0  0  0  0  0  0  0  0  0  0  0  0
    5.2658   -8.5406    0.0000 F   0  0  0  0  0  0  0  0  0  0  0  0
    3.6172   -7.2057    0.0000 O   0  0  0  0  0  0  0  0  0  0  0  0
    8.7849   -6.6625    0.0000 N   0  0  0  0  0  0  0  0  0  0  0  0
  1  2  1  0
  2  3  1  0
  3  4  1  0
  4  5  1  0
  5  6  1  0
  6  1  1  0
  7  8  1  0
  8  9  2  0
  9 10  1  0
 10 11  1  0
 11  7  2  0
 12 13  1  0
 13 14  1  0
 14 12  1  0
 15 16  2  0
 16 17  2  0
 18 19  2  0
 19 20  1  0
 20 21  2  0
 21 22  1  0
 22 23  2  0
 23 18  1  0
 25 26  2  0
 26 27  1  0
 27 28  2  0
 28 29  1  0
 29 30  2  0
 30 25  1  0
 31 32  1  0
 32 33  1  0
 32 34  1  0
 32 35  1  0
  1 10  1  0
  9 12  1  0
 12 16  1  0
 16 22  1  0
 18 24  1  0
  7 28  1  0
 27 35  1  0
 25 36  1  0
M  END

