
     RDKit          2D

 29 31  0  0  0  0  0  0  0  0999 V2000
   -1.5280    9.3824    0.0000 N   0  0  0  0  0  0  0  0  0  0  0  0
   -4.1682    8.9643    0.0000 C   0  0  0  0  0  0  0  0  0  0  0  0
   -5.0498    7.7508    0.0000 N   0  0  0  0  0  0  0  0  0  0  0  0
   -4.1682    6.5372    0.0000 C   0  0  0  0  0  0  0  0  0  0  0  0
   -2.7416    7.0008    0.0000 C   0  0  0  0  0  0  0  0  0  0  0  0
   -2.7416    8.5008    0.0000 N   0  0  0  0  0  0  0  0  0  0  0  0
   -6.0583    3.1471    0.0000 C   0  0  0  0  0  0  0  0  0  0  0  0
   -4.6317    2.6836    0.0000 C   0  0  0  0  0  0  0  0  0  0  0  0
   -3.7500    3.8971    0.0000 N   0  0  0  0  0  0  0  0  0  0  0  0
   -4.6317    5.1106    0.0000 C   0  0  0  0  0  0  0  0  0  0  0  0
   -6.0583    4.6471    0.0000 N   0  0  0  0  0  0  0  0  0  0  0  0
   -0.2010    3.3481    0.0000 O   0  0  0  0  0  0  0  0  0  0  0  0
   -1.5000    2.5981    0.0000 S   0  0  0  0  0  0  0  0  0  0  0  0
   -2.7990    1.8481    0.0000 O   0  0  0  0  0  0  0  0  0  0  0  0
   -2.2500    3.8971    0.0000 N   0  0  0  0  0  0  0  0  0  0  0  0
    1.5000    0.0000    0.0000 C   0  0  0  0  0  0  0  0  0  0  0  0
    0.7500   -1.2990    0.0000 C   0  0  0  0  0  0  0  0  0  0  0  0
   -0.7500   -1.2990    0.0000 C   0  0  0  0  0  0  0  0  0  0  0  0
   -1.5000    0.0000    0.0000 C   0  0  0  0  0  0  0  0  0  0  0  0
   -0.7500    1.2990    0.0000 C   0  0  0  0  0  0  0  0  0  0  0  0
    0.7500    1.2990    0.0000 C   0  0  0  0  0  0  0  0  0  0  0  0
    3.7500   -1.2990    0.0000 C   0  0  0  0  0  0  0  0  0  0  0  0
    3.0000    0.0000    0.0000 O   0  0  0  0  0  0  0  0  0  0  0  0
   -7.2718    2.2654    0.0000 O   0  0  0  0  0  1  0  0  0  0  0  0
   -2.1608   11.1937    0.0000 C   0  0  0  0  0  0  0  0  0  0  0  0
   -3.6280   11.5056    0.0000 C   0  0  0  0  0  0  0  0  0  0  0  0
   -4.0915   12.9322    0.0000 C   0  0  0  0  0  0  0  0  0  0  0  0
   -3.0878   14.0469    0.0000 C   0  0  0  0  0  0  0  0  0  0  0  0
   -4.6317   10.3909    0.0000 C   0  0  0  0  0  0  0  0  0  0  0  0
  2  3  2  0
  3  4  1  0
  4  5  2  0
  5  6  1  0
  6  2  1  0
  7  8  2  0
  8  9  1  0
  9 10  1  0
 10 11  2  0
 11  7  1  0
 12 13  2  0
 13 14  2  0
 13 15  1  0
 16 17  2  0
 17 18  1  0
 18 19  2  0
 19 20  1  0
 20 21  2  0
 21 16  1  0
 22 23  1  0
 25 26  1  0
 26 27  2  0
 27 28  1  0
 26 29  1  0
  1  6  1  0
  4 10  1  0
  9 15  1  0
 13 20  1  0
 16 23  1  0
  7 24  1  0
  2 29  1  0
M  CHG  1  24  -1
M  END

