
     RDKit          2D

 22 23  0  0  0  0  0  0  0  0999 V2000
    4.2760   -2.5981    0.0000 C   0  0  0  0  0  0  0  0  0  0  0  0
    3.5260   -1.2990    0.0000 C   0  0  0  0  0  0  0  0  0  0  0  0
    2.7760    0.0000    0.0000 C   0  0  0  0  0  0  0  0  0  0  0  0
    1.2760    0.0000    0.0000 C   0  0  0  0  0  0  0  0  0  0  0  0
    0.3943    1.2135    0.0000 C   0  0  0  0  0  0  0  0  0  0  0  0
   -1.0323    0.7500    0.0000 C   0  0  0  0  0  0  0  0  0  0  0  0
   -2.2458    1.6317    0.0000 N   0  0  0  0  0  0  0  0  0  0  0  0
   -2.0890    3.1235    0.0000 C   0  0  0  0  0  0  0  0  0  0  0  0
   -3.3025    4.0051    0.0000 C   0  0  0  0  0  0  0  0  0  0  0  0
   -0.7187    3.7336    0.0000 O   0  0  0  0  0  0  0  0  0  0  0  0
   -1.0323   -0.7500    0.0000 N   0  0  0  0  0  0  0  0  0  0  0  0
    0.3943   -1.2135    0.0000 N   0  0  0  0  0  0  0  0  0  0  0  0
    0.8578   -2.6401    0.0000 C   0  0  0  0  0  0  0  0  0  0  0  0
    2.2844   -3.1036    0.0000 C   0  0  0  0  0  0  0  0  0  0  0  0
    2.2844   -4.6036    0.0000 C   0  0  0  0  0  0  0  0  0  0  0  0
    0.8578   -5.0672    0.0000 C   0  0  0  0  0  0  0  0  0  0  0  0
    0.3943   -6.4937    0.0000 C   0  0  0  0  0  0  0  0  0  0  0  0
   -1.0729   -6.8056    0.0000 C   0  0  0  0  0  0  0  0  0  0  0  0
   -2.5401   -7.1175    0.0000 F   0  0  0  0  0  0  0  0  0  0  0  0
   -0.7611   -8.2728    0.0000 F   0  0  0  0  0  0  0  0  0  0  0  0
   -1.3848   -5.3384    0.0000 F   0  0  0  0  0  0  0  0  0  0  0  0
   -0.0239   -3.8536    0.0000 S   0  0  0  0  0  0  0  0  0  0  0  0
  1  2  3  0
  2  3  1  0
  3  4  1  0
  4  5  2  0
  5  6  1  0
  6  7  1  0
  7  8  1  0
  8  9  1  0
  8 10  2  0
  6 11  2  0
 11 12  1  0
 12 13  1  0
 13 14  2  0
 14 15  1  0
 15 16  2  0
 16 17  1  0
 17 18  1  0
 18 19  1  0
 18 20  1  0
 18 21  1  0
 16 22  1  0
 12  4  1  0
 22 13  1  0
M  END

