
     RDKit          2D

 43 48  0  0  0  0  0  0  0  0999 V2000
   -0.0703    0.1233    0.0000 N   0  0  0  0  0  0  0  0  0  0  0  0
    0.6118   -1.0527    0.0000 C   0  0  0  0  0  0  0  0  0  0  0  0
    0.7500   -1.2990    0.0000 C   0  0  0  0  0  0  0  0  0  0  0  0
    1.5000    0.0000    0.0000 C   0  0  0  0  0  0  0  0  0  0  0  0
    0.7500    1.2990    0.0000 C   0  0  0  0  0  0  0  0  0  0  0  0
   -0.7500    1.2990    0.0000 C   0  0  0  0  0  0  0  0  0  0  0  0
   -1.5000    0.0000    0.0000 C   0  0  0  0  0  0  0  0  0  0  0  0
   -0.7500   -1.2990    0.0000 C   0  0  0  0  0  0  0  0  0  0  0  0
    0.0017    0.0048    0.0000 C   0  0  0  0  0  0  0  0  0  0  0  0
    5.8198    1.6462    0.0000 C   0  0  0  0  0  0  0  0  0  0  0  0
    4.5208    0.8962    0.0000 N   0  0  0  0  0  0  0  0  0  0  0  0
    3.2218    1.6462    0.0000 C   0  0  0  0  0  0  0  0  0  0  0  0
    8.4892    1.5063    0.0000 C   0  0  0  0  0  0  0  0  0  0  0  0
    9.4929    0.3916    0.0000 N   0  0  0  0  0  0  0  0  0  0  0  0
    8.7429   -0.9075    0.0000 C   0  0  0  0  0  0  0  0  0  0  0  0
    7.2757   -0.5956    0.0000 C   0  0  0  0  0  0  0  0  0  0  0  0
    7.1189    0.8962    0.0000 N   0  0  0  0  0  0  0  0  0  0  0  0
   11.4549   -3.8049    0.0000 C   0  0  0  0  0  0  0  0  0  0  0  0
   10.5732   -5.0184    0.0000 C   0  0  0  0  0  0  0  0  0  0  0  0
    9.0814   -4.8616    0.0000 C   0  0  0  0  0  0  0  0  0  0  0  0
    8.4713   -3.4913    0.0000 C   0  0  0  0  0  0  0  0  0  0  0  0
    9.3530   -2.2778    0.0000 C   0  0  0  0  0  0  0  0  0  0  0  0
   10.8448   -2.4346    0.0000 C   0  0  0  0  0  0  0  0  0  0  0  0
    3.7244   -5.6048    0.0000 C   0  0  0  0  0  0  0  0  0  0  0  0
    4.6061   -4.3912    0.0000 C   0  0  0  0  0  0  0  0  0  0  0  0
    6.0979   -4.5480    0.0000 C   0  0  0  0  0  0  0  0  0  0  0  0
    6.9795   -3.3345    0.0000 N   0  0  0  0  0  0  0  0  0  0  0  0
   12.9467   -3.9617    0.0000 F   0  0  0  0  0  0  0  0  0  0  0  0
    9.4248    5.9080    0.0000 N   0  0  0  0  0  0  0  0  0  0  0  0
    7.9982    5.4444    0.0000 C   0  0  0  0  0  0  0  0  0  0  0  0
    7.6863    3.9772    0.0000 C   0  0  0  0  0  0  0  0  0  0  0  0
    8.8011    2.9735    0.0000 C   0  0  0  0  0  0  0  0  0  0  0  0
   10.2276    3.4370    0.0000 C   0  0  0  0  0  0  0  0  0  0  0  0
   10.5395    4.9043    0.0000 C   0  0  0  0  0  0  0  0  0  0  0  0
    8.6219    8.3789    0.0000 C   0  0  0  0  0  0  0  0  0  0  0  0
    8.9338    9.8461    0.0000 C   0  0  0  0  0  0  0  0  0  0  0  0
   10.3604   10.3096    0.0000 N   0  0  0  0  0  0  0  0  0  0  0  0
   11.4751    9.3059    0.0000 C   0  0  0  0  0  0  0  0  0  0  0  0
   11.1632    7.8387    0.0000 N   0  0  0  0  0  0  0  0  0  0  0  0
    9.7367    7.3752    0.0000 C   0  0  0  0  0  0  0  0  0  0  0  0
    7.8191   10.8498    0.0000 N   0  0  0  0  0  0  0  0  0  0  0  0
    6.0806    8.9190    0.0000 C   0  0  0  0  0  0  0  0  0  0  0  0
    7.1954    7.9154    0.0000 C   0  0  0  0  0  0  0  0  0  0  0  0
  1  2  1  0
  3  2  1  6
  3  4  1  0
  4  5  1  0
  6  5  1  1
  6  7  1  0
  7  8  1  0
  6  9  1  0
  9  1  1  0
  8  3  1  0
 10 11  1  0
 11 12  1  0
 13 14  2  0
 14 15  1  0
 15 16  2  0
 16 17  1  0
 17 13  1  0
 18 19  2  0
 19 20  1  0
 20 21  2  0
 21 22  1  0
 22 23  2  0
 23 18  1  0
 24 25  1  0
 25 26  1  0
 26 27  1  0
 29 30  1  0
 30 31  1  0
 31 32  1  0
 32 33  1  0
 33 34  1  0
 34 29  1  0
 35 36  2  0
 36 37  1  0
 37 38  2  0
 38 39  1  0
 39 40  2  0
 40 35  1  0
 42 43  1  0
  1 12  1  0
 10 17  1  0
 15 22  1  0
 21 27  1  0
 18 28  1  0
 13 32  1  0
 29 40  1  0
 36 41  1  0
 35 43  1  0
M  ISO  1  28  18
M  END

