
     RDKit          2D

 33 37  0  0  0  0  0  0  0  0999 V2000
   -5.1967   -1.6955    0.0000 N   0  0  0  0  0  0  0  0  0  0  0  0
   -4.0819   -0.6918    0.0000 C   0  0  0  0  0  0  0  0  0  0  0  0
    0.7500   -1.2990    0.0000 C   0  0  0  0  0  0  0  0  0  0  0  0
    1.5000    0.0000    0.0000 N   0  0  0  0  0  0  0  0  0  0  0  0
    0.7500    1.2990    0.0000 C   0  0  0  0  0  0  0  0  0  0  0  0
   -0.7500    1.2990    0.0000 C   0  0  0  0  0  0  0  0  0  0  0  0
   -1.7537    2.4138    0.0000 N   0  0  0  0  0  0  0  0  0  0  0  0
   -3.1240    1.8037    0.0000 C   0  0  0  0  0  0  0  0  0  0  0  0
   -2.9672    0.3119    0.0000 N   0  0  0  0  0  0  0  0  0  0  0  0
   -1.5000    0.0000    0.0000 C   0  0  0  0  0  0  0  0  0  0  0  0
   -0.7500   -1.2990    0.0000 N   0  0  0  0  0  0  0  0  0  0  0  0
   -5.7221    4.8037    0.0000 N   0  0  0  0  0  0  0  0  0  0  0  0
   -4.4231    4.0537    0.0000 C   0  0  0  0  0  0  0  0  0  0  0  0
   -4.4231    2.5537    0.0000 C   0  0  0  0  0  0  0  0  0  0  0  0
   -5.7221    6.3037    0.0000 N   0  0  0  0  0  0  0  0  0  0  0  0
   -6.9356    7.1853    0.0000 C   0  0  0  0  0  0  0  0  0  0  0  0
   -6.4721    8.6119    0.0000 C   0  0  0  0  0  0  0  0  0  0  0  0
   -4.9721    8.6119    0.0000 C   0  0  0  0  0  0  0  0  0  0  0  0
   -4.5086    7.1853    0.0000 C   0  0  0  0  0  0  0  0  0  0  0  0
    5.3740   -5.7008    0.0000 C   0  0  0  0  0  0  0  0  0  0  0  0
    4.0037   -6.3109    0.0000 N   0  0  0  0  0  0  0  0  0  0  0  0
    3.0000   -5.1962    0.0000 C   0  0  0  0  0  0  0  0  0  0  0  0
    1.5000   -5.1962    0.0000 C   0  0  0  0  0  0  0  0  0  0  0  0
    0.7500   -3.8971    0.0000 C   0  0  0  0  0  0  0  0  0  0  0  0
    1.5000   -2.5981    0.0000 C   0  0  0  0  0  0  0  0  0  0  0  0
    3.0000   -2.5981    0.0000 C   0  0  0  0  0  0  0  0  0  0  0  0
    3.7500   -3.8971    0.0000 C   0  0  0  0  0  0  0  0  0  0  0  0
    5.2172   -4.2090    0.0000 O   0  0  0  0  0  0  0  0  0  0  0  0
    7.9721  -10.2008    0.0000 C   0  0  0  0  0  0  0  0  0  0  0  0
    7.9721   -8.7008    0.0000 N   0  0  0  0  0  0  0  0  0  0  0  0
    6.6731   -7.9508    0.0000 C   0  0  0  0  0  0  0  0  0  0  0  0
    5.3740   -8.7008    0.0000 O   0  0  0  0  0  0  0  0  0  0  0  0
    6.6731   -6.4508    0.0000 N   0  0  0  0  0  0  0  0  0  0  0  0
  1  2  3  0
  3  4  2  0
  4  5  1  0
  5  6  2  0
  6  7  1  0
  7  8  2  0
  8  9  1  0
  9 10  1  0
 10 11  2  0
 11  3  1  0
 10  6  1  0
 12 13  1  0
 13 14  1  0
 15 16  1  0
 16 17  1  0
 17 18  1  0
 18 19  1  0
 19 15  1  0
 20 21  2  0
 21 22  1  0
 22 23  2  0
 23 24  1  0
 24 25  2  0
 25 26  1  0
 26 27  2  0
 27 28  1  0
 28 20  1  0
 27 22  1  0
 29 30  1  0
 30 31  1  0
 31 32  2  0
 31 33  1  0
  2  9  1  0
  8 14  1  0
 12 15  1  0
  3 25  1  0
 20 33  1  0
M  END

