
     RDKit          2D

 32 37  0  0  0  0  0  0  0  0999 V2000
    3.0000    2.5981    0.0000 F   0  0  0  0  0  0  0  0  0  0  0  0
    0.7500   -1.2990    0.0000 C   0  0  0  0  0  0  0  0  0  0  0  0
   -0.7500   -1.2990    0.0000 C   0  0  0  0  0  0  0  0  0  0  0  0
   -1.5000   -0.0000    0.0000 N   0  0  0  0  0  0  0  0  0  0  0  0
   -0.7500    1.2990    0.0000 C   0  0  0  0  0  0  0  0  0  0  0  0
   -1.5000    2.5981    0.0000 C   0  0  0  0  0  0  0  0  0  0  0  0
   -0.7500    3.8971    0.0000 C   0  0  0  0  0  0  0  0  0  0  0  0
    0.7500    3.8971    0.0000 C   0  0  0  0  0  0  0  0  0  0  0  0
    1.5000    2.5981    0.0000 C   0  0  0  0  0  0  0  0  0  0  0  0
    0.7500    1.2990    0.0000 C   0  0  0  0  0  0  0  0  0  0  0  0
    1.5000    0.0000    0.0000 C   0  0  0  0  0  0  0  0  0  0  0  0
    3.9271   -2.5981    0.0000 C   0  0  0  0  0  0  0  0  0  0  0  0
    3.4635   -4.0247    0.0000 C   0  0  0  0  0  0  0  0  0  0  0  0
    1.9635   -4.0247    0.0000 O   0  0  0  0  0  0  0  0  0  0  0  0
    1.5000   -2.5981    0.0000 C   0  0  0  0  0  0  0  0  0  0  0  0
    2.7135   -1.7164    0.0000 O   0  0  0  0  0  0  0  0  0  0  0  0
   -3.6677   -2.0549    0.0000 O   0  0  0  0  0  0  0  0  0  0  0  0
   -2.4542   -2.9366    0.0000 C   0  0  0  0  0  0  0  0  0  0  0  0
   -1.0838   -2.3265    0.0000 C   0  0  0  0  0  0  0  0  0  0  0  0
    0.1297   -3.2082    0.0000 C   0  0  0  0  0  0  0  0  0  0  0  0
   -0.0271   -4.7000    0.0000 N   0  0  0  0  0  0  0  0  0  0  0  0
   -1.3974   -5.3101    0.0000 C   0  0  0  0  0  0  0  0  0  0  0  0
   -2.6110   -4.4284    0.0000 N   0  0  0  0  0  0  0  0  0  0  0  0
   -2.3486   -9.9259    0.0000 N   0  0  0  0  0  0  0  0  0  0  0  0
   -3.4634   -8.9222    0.0000 C   0  0  0  0  0  0  0  0  0  0  0  0
   -2.8533   -7.5519    0.0000 C   0  0  0  0  0  0  0  0  0  0  0  0
   -1.3615   -7.7086    0.0000 C   0  0  0  0  0  0  0  0  0  0  0  0
   -1.0496   -9.1759    0.0000 C   0  0  0  0  0  0  0  0  0  0  0  0
   -0.4395   -7.8055    0.0000 C   0  0  0  0  0  0  0  0  0  0  0  0
   -1.5542   -6.8019    0.0000 N   0  0  0  0  0  0  0  0  0  0  0  0
   -3.8758  -12.0278    0.0000 O   0  0  0  0  0  0  0  0  0  0  0  0
   -2.5054  -11.4176    0.0000 C   0  0  0  0  0  0  0  0  0  0  0  0
  2  3  1  0
  3  4  1  0
  4  5  1  0
  5  6  2  0
  6  7  1  0
  7  8  2  0
  8  9  1  0
  9 10  2  0
 10 11  1  0
 11  2  1  0
 10  5  1  0
 12 13  1  6
 13 14  1  0
 14 15  1  0
 15 16  1  0
 16 12  1  0
 17 18  2  0
 18 19  1  0
 19 20  2  0
 20 21  1  0
 21 22  2  0
 22 23  1  0
 23 18  1  0
 24 25  1  0
 25 26  1  0
 26 27  1  0
 27 28  1  0
 28 29  1  0
 29 30  1  0
 28 24  1  0
 30 26  1  0
 31 32  1  0
  1  9  1  0
 15  2  1  1
 15 20  1  0
 22 30  1  0
 24 32  1  0
M  END

