
     RDKit          2D

 32 35  0  0  0  0  0  0  0  0999 V2000
   -0.0745   13.9115    0.0000 C   0  0  0  0  0  0  0  0  0  0  0  0
   -1.0782   12.7967    0.0000 C   0  0  0  0  0  0  0  0  0  0  0  0
   -2.5455   13.1086    0.0000 C   0  0  0  0  0  0  0  0  0  0  0  0
    2.7833    9.3198    0.0000 O   0  0  0  0  0  0  0  0  0  0  0  0
    1.3160    9.6317    0.0000 C   0  0  0  0  0  0  0  0  0  0  0  0
    0.3123    8.5170    0.0000 N   0  0  0  0  0  0  0  0  0  0  0  0
   -1.1549    8.8289    0.0000 C   0  0  0  0  0  0  0  0  0  0  0  0
   -1.6184   10.2554    0.0000 C   0  0  0  0  0  0  0  0  0  0  0  0
   -0.6147   11.3702    0.0000 C   0  0  0  0  0  0  0  0  0  0  0  0
    0.8525   11.0583    0.0000 N   0  0  0  0  0  0  0  0  0  0  0  0
   -3.6504    7.8709    0.0000 C   0  0  0  0  0  0  0  0  0  0  0  0
   -4.2605    6.5006    0.0000 N   0  0  0  0  0  0  0  0  0  0  0  0
   -3.1458    5.4969    0.0000 C   0  0  0  0  0  0  0  0  0  0  0  0
   -1.8467    6.2469    0.0000 S   0  0  0  0  0  0  0  0  0  0  0  0
   -2.1586    7.7141    0.0000 C   0  0  0  0  0  0  0  0  0  0  0  0
   -4.6729    3.3950    0.0000 O   0  0  0  0  0  0  0  0  0  0  0  0
   -3.3025    4.0051    0.0000 C   0  0  0  0  0  0  0  0  0  0  0  0
   -2.0890    3.1235    0.0000 C   0  0  0  0  0  0  0  0  0  0  0  0
   -2.2458    1.6317    0.0000 C   0  0  0  0  0  0  0  0  0  0  0  0
   -2.0890    1.6235    0.0000 N   0  0  0  0  0  0  0  0  0  0  0  0
   -0.7187    2.2336    0.0000 C   0  0  0  0  0  0  0  0  0  0  0  0
    0.3943    1.2135    0.0000 C   0  0  0  0  0  0  0  0  0  0  0  0
    1.2760    0.0000    0.0000 C   0  0  0  0  0  0  0  0  0  0  0  0
    0.3943   -1.2135    0.0000 C   0  0  0  0  0  0  0  0  0  0  0  0
   -1.0323   -0.7500    0.0000 C   0  0  0  0  0  0  0  0  0  0  0  0
   -2.2458    0.1317    0.0000 C   0  0  0  0  0  0  0  0  0  0  0  0
   -1.0323    0.7500    0.0000 C   0  0  0  0  0  0  0  0  0  0  0  0
   -4.3593    4.8786    0.0000 N   0  0  0  0  0  0  0  0  0  0  0  0
   -3.1458    3.9969    0.0000 C   0  0  0  0  0  0  0  0  0  0  0  0
   -1.7754    4.6070    0.0000 O   0  0  0  0  0  0  0  0  0  0  0  0
   -3.3025    2.5051    0.0000 C   0  0  0  0  0  0  0  0  0  0  0  0
   -4.4004    9.1700    0.0000 N   0  0  0  0  0  0  0  0  0  0  0  0
  1  2  1  0
  2  3  1  0
  4  5  2  0
  5  6  1  0
  6  7  2  0
  7  8  1  0
  8  9  2  0
  9 10  1  0
 10  5  1  0
 11 12  1  0
 12 13  2  0
 13 14  1  0
 14 15  1  0
 15 11  2  0
 17 16  1  1
 17 18  1  0
 18 19  1  0
 20 21  1  0
 21 22  1  0
 22 23  1  0
 23 24  1  0
 24 25  1  0
 25 26  1  0
 25 27  1  0
 26 20  1  0
 27 22  1  0
 28 29  1  0
 29 30  2  0
 29 31  1  0
  2  9  1  0
  7 15  1  0
 13 17  1  0
 19 27  1  0
 20 31  1  0
 11 32  1  0
M  END

