
     RDKit          2D

 41 45  0  0  0  0  0  0  0  0999 V2000
    9.5490   -2.0490    0.0000 F   0  0  0  0  0  0  0  0  0  0  0  0
    8.2500   -1.2990    0.0000 C   0  0  0  0  0  0  0  0  0  0  0  0
    6.9510   -0.5490    0.0000 F   0  0  0  0  0  0  0  0  0  0  0  0
    9.0000   -0.0000    0.0000 F   0  0  0  0  0  0  0  0  0  0  0  0
    7.5000   -2.5981    0.0000 S   0  0  0  0  0  0  0  0  0  0  0  0
    3.0000   -2.5981    0.0000 C   0  0  0  0  0  0  0  0  0  0  0  0
    3.7500   -1.2990    0.0000 C   0  0  0  0  0  0  0  0  0  0  0  0
    5.2500   -1.2990    0.0000 C   0  0  0  0  0  0  0  0  0  0  0  0
    6.0000   -2.5981    0.0000 C   0  0  0  0  0  0  0  0  0  0  0  0
    5.2500   -3.8971    0.0000 N   0  0  0  0  0  0  0  0  0  0  0  0
    3.7500   -3.8971    0.0000 C   0  0  0  0  0  0  0  0  0  0  0  0
    1.5000   -2.5981    0.0000 N   0  0  0  0  0  0  0  0  0  0  0  0
   -0.7500   -3.8971    0.0000 C   0  0  0  0  0  0  0  0  0  0  0  0
   -1.5000   -5.1962    0.0000 C   0  0  0  0  0  0  0  0  0  0  0  0
   -0.7500   -6.4952    0.0000 C   0  0  0  0  0  0  0  0  0  0  0  0
    0.7500   -6.4952    0.0000 C   0  0  0  0  0  0  0  0  0  0  0  0
    1.5000   -5.1962    0.0000 N   0  0  0  0  0  0  0  0  0  0  0  0
    0.7500   -3.8971    0.0000 C   0  0  0  0  0  0  0  0  0  0  0  0
   -1.5000   -9.2942    0.0000 C   0  0  0  0  0  0  0  0  0  0  0  0
   -2.7990   -8.5442    0.0000 C   0  0  0  0  0  0  0  0  0  0  0  0
   -1.5000   -7.7942    0.0000 C   0  0  0  0  0  0  0  0  0  0  0  0
    0.7500  -13.1913    0.0000 N   0  0  0  0  0  0  0  0  0  0  0  0
   -0.7500  -13.1913    0.0000 C   0  0  0  0  0  0  0  0  0  0  0  0
   -1.5000  -11.8923    0.0000 C   0  0  0  0  0  0  0  0  0  0  0  0
   -0.7500  -10.5933    0.0000 N   0  0  0  0  0  0  0  0  0  0  0  0
    0.7500  -10.5933    0.0000 C   0  0  0  0  0  0  0  0  0  0  0  0
    1.5000  -11.8923    0.0000 C   0  0  0  0  0  0  0  0  0  0  0  0
    2.2500  -15.7894    0.0000 C   0  0  0  0  0  0  0  0  0  0  0  0
    1.5000  -14.4904    0.0000 S   0  0  0  0  0  0  0  0  0  0  0  0
    2.7990  -13.7404    0.0000 O   0  0  0  0  0  0  0  0  0  0  0  0
    0.2010  -15.2404    0.0000 O   0  0  0  0  0  0  0  0  0  0  0  0
   -2.0046   -0.2241    0.0000 C   0  0  0  0  0  0  0  0  0  0  0  0
   -3.3037   -0.9741    0.0000 C   0  0  0  0  0  0  0  0  0  0  0  0
   -2.9918   -2.4413    0.0000 C   0  0  0  0  0  0  0  0  0  0  0  0
   -1.5000   -2.5981    0.0000 N   0  0  0  0  0  0  0  0  0  0  0  0
   -0.8899   -1.2278    0.0000 N   0  0  0  0  0  0  0  0  0  0  0  0
   -3.9955   -3.5560    0.0000 N   0  0  0  0  0  0  0  0  0  0  0  0
   -4.1181    4.5229    0.0000 C   0  0  0  0  0  0  0  0  0  0  0  0
   -2.9046    3.6412    0.0000 C   0  0  0  0  0  0  0  0  0  0  0  0
   -3.0613    2.1494    0.0000 C   0  0  0  0  0  0  0  0  0  0  0  0
   -1.8478    1.2677    0.0000 S   0  0  0  0  0  0  0  0  0  0  0  0
  1  2  1  0
  2  3  1  0
  2  4  1  0
  2  5  1  0
  6  7  2  0
  7  8  1  0
  8  9  2  0
  9 10  1  0
 10 11  2  0
 11  6  1  0
 13 14  2  0
 14 15  1  0
 15 16  2  0
 16 17  1  0
 17 18  2  0
 18 13  1  0
 19 20  1  0
 20 21  1  0
 21 19  1  0
 22 23  1  0
 23 24  1  0
 24 25  1  0
 25 26  1  0
 26 27  1  0
 27 22  1  0
 28 29  1  0
 29 30  2  0
 29 31  2  0
 32 33  1  0
 33 34  2  0
 34 35  1  0
 35 36  1  0
 36 32  2  0
 38 39  1  0
 39 40  1  0
 40 41  1  0
  5  9  1  0
  6 12  1  0
 12 18  1  0
 21 15  1  1
 19 25  1  1
 22 29  1  0
 13 35  1  0
 34 37  1  0
 32 41  1  0
M  END

