
     RDKit          2D

 49 53  0  0  0  0  0  0  0  0999 V2000
   -9.8417    4.2890    0.0000 C   0  0  0  0  0  0  0  0  0  0  0  0
   -8.4713    3.6789    0.0000 N   0  0  0  0  0  0  0  0  0  0  0  0
   -8.3145    2.1872    0.0000 C   0  0  0  0  0  0  0  0  0  0  0  0
   -7.2578    4.5606    0.0000 C   0  0  0  0  0  0  0  0  0  0  0  0
   -5.8875    3.9505    0.0000 C   0  0  0  0  0  0  0  0  0  0  0  0
   -4.6740    4.8322    0.0000 S   0  0  0  0  0  0  0  0  0  0  0  0
   -2.0046    4.9721    0.0000 C   0  0  0  0  0  0  0  0  0  0  0  0
   -0.8899    3.9684    0.0000 N   0  0  0  0  0  0  0  0  0  0  0  0
   -1.5000    2.5981    0.0000 C   0  0  0  0  0  0  0  0  0  0  0  0
   -2.9918    2.7549    0.0000 C   0  0  0  0  0  0  0  0  0  0  0  0
   -3.3037    4.2221    0.0000 N   0  0  0  0  0  0  0  0  0  0  0  0
    1.5000    0.0000    0.0000 C   0  0  0  0  0  0  0  0  0  0  0  0
    0.7500   -1.2990    0.0000 C   0  0  0  0  0  0  0  0  0  0  0  0
   -0.7500   -1.2990    0.0000 C   0  0  0  0  0  0  0  0  0  0  0  0
   -1.5000    0.0000    0.0000 C   0  0  0  0  0  0  0  0  0  0  0  0
   -0.7500    1.2990    0.0000 C   0  0  0  0  0  0  0  0  0  0  0  0
    0.7500    1.2990    0.0000 C   0  0  0  0  0  0  0  0  0  0  0  0
   -4.5000    0.0000    0.0000 F   0  0  0  0  0  0  0  0  0  0  0  0
   -3.0000    0.0000    0.0000 C   0  0  0  0  0  0  0  0  0  0  0  0
   -3.0000    1.5000    0.0000 F   0  0  0  0  0  0  0  0  0  0  0  0
   -3.0000   -1.5000    0.0000 F   0  0  0  0  0  0  0  0  0  0  0  0
    6.0000   -2.5981    0.0000 C   0  0  0  0  0  0  0  0  0  0  0  0
    5.2500   -1.2990    0.0000 C   0  0  0  0  0  0  0  0  0  0  0  0
    3.7500   -1.2990    0.0000 C   0  0  0  0  0  0  0  0  0  0  0  0
    3.0000    0.0000    0.0000 N   0  0  0  0  0  0  0  0  0  0  0  0
   -1.5342    9.4474    0.0000 N   0  0  0  0  0  0  0  0  0  0  0  0
   -2.9046    8.8373    0.0000 C   0  0  0  0  0  0  0  0  0  0  0  0
   -3.0613    7.3456    0.0000 C   0  0  0  0  0  0  0  0  0  0  0  0
   -1.8478    6.4639    0.0000 C   0  0  0  0  0  0  0  0  0  0  0  0
   -0.4775    7.0740    0.0000 C   0  0  0  0  0  0  0  0  0  0  0  0
   -0.3207    8.5658    0.0000 C   0  0  0  0  0  0  0  0  0  0  0  0
   -0.0071   11.5493    0.0000 C   0  0  0  0  0  0  0  0  0  0  0  0
    0.1497   13.0411    0.0000 C   0  0  0  0  0  0  0  0  0  0  0  0
   -1.0639   13.9228    0.0000 N   0  0  0  0  0  0  0  0  0  0  0  0
   -2.4342   13.3127    0.0000 C   0  0  0  0  0  0  0  0  0  0  0  0
   -2.5910   11.8209    0.0000 N   0  0  0  0  0  0  0  0  0  0  0  0
   -1.3774   10.9392    0.0000 C   0  0  0  0  0  0  0  0  0  0  0  0
    1.6768   15.1430    0.0000 O   0  0  0  0  0  0  0  0  0  0  0  0
    1.5200   13.6512    0.0000 C   0  0  0  0  0  0  0  0  0  0  0  0
    2.6330    8.7041    0.0000 C   0  0  0  0  0  0  0  0  0  0  0  0
    3.5147    9.9176    0.0000 C   0  0  0  0  0  0  0  0  0  0  0  0
    2.6330   11.1312    0.0000 N   0  0  0  0  0  0  0  0  0  0  0  0
    1.2064   10.6676    0.0000 C   0  0  0  0  0  0  0  0  0  0  0  0
    1.2064    9.1676    0.0000 C   0  0  0  0  0  0  0  0  0  0  0  0
    5.5674    8.0804    0.0000 O   0  0  0  0  0  0  0  0  0  0  0  0
    4.5637    6.9657    0.0000 C   0  0  0  0  0  0  0  0  0  0  0  0
    5.0273    5.5391    0.0000 C   0  0  0  0  0  0  0  0  0  0  0  0
    6.4945    5.2272    0.0000 O   0  0  0  0  0  0  0  0  0  0  0  0
    3.0965    7.2775    0.0000 N   0  0  0  0  0  0  0  0  0  0  0  0
  1  2  1  0
  2  3  1  0
  2  4  1  0
  4  5  1  0
  5  6  1  0
  7  8  2  0
  8  9  1  0
  9 10  2  0
 10 11  1  0
 11  7  1  0
 12 13  2  0
 13 14  1  0
 14 15  2  0
 15 16  1  0
 16 17  2  0
 17 12  1  0
 18 19  1  0
 19 20  1  0
 19 21  1  0
 22 23  1  0
 23 24  1  0
 24 25  1  0
 26 27  1  0
 27 28  1  0
 28 29  1  0
 29 30  1  0
 30 31  1  0
 31 26  1  0
 32 33  2  0
 33 34  1  0
 34 35  2  0
 35 36  1  0
 36 37  2  0
 37 32  1  0
 38 39  1  0
 40 41  2  0
 41 42  1  0
 42 43  1  0
 43 44  2  0
 44 40  1  0
 45 46  2  0
 46 47  1  0
 47 48  1  0
 46 49  1  0
  6 11  1  0
  9 16  1  0
 15 19  1  0
 12 25  1  0
  7 29  1  0
 26 37  1  0
 33 39  1  0
 32 43  1  0
 40 49  1  0
M  END

