
     RDKit          2D

 35 40  0  0  0  0  0  0  0  0999 V2000
   -2.1470    1.7537    0.0000 C   0  0  0  0  0  0  0  0  0  0  0  0
   -1.8351    3.2209    0.0000 C   0  0  0  0  0  0  0  0  0  0  0  0
   -0.4086    3.6844    0.0000 C   0  0  0  0  0  0  0  0  0  0  0  0
    0.7062    2.6807    0.0000 C   0  0  0  0  0  0  0  0  0  0  0  0
    0.3943    1.2135    0.0000 C   0  0  0  0  0  0  0  0  0  0  0  0
    1.2760    0.0000    0.0000 C   0  0  0  0  0  0  0  0  0  0  0  0
    0.3943   -1.2135    0.0000 C   0  0  0  0  0  0  0  0  0  0  0  0
   -1.0323   -0.7500    0.0000 N   0  0  0  0  0  0  0  0  0  0  0  0
   -1.0323    0.7500    0.0000 C   0  0  0  0  0  0  0  0  0  0  0  0
   -4.3764    3.7611    0.0000 N   0  0  0  0  0  0  0  0  0  0  0  0
   -4.6883    2.2939    0.0000 C   0  0  0  0  0  0  0  0  0  0  0  0
   -6.1149    1.8303    0.0000 C   0  0  0  0  0  0  0  0  0  0  0  0
   -7.2296    2.8340    0.0000 O   0  0  0  0  0  0  0  0  0  0  0  0
   -3.5736    1.2902    0.0000 C   0  0  0  0  0  0  0  0  0  0  0  0
  -11.1975    2.9107    0.0000 C   0  0  0  0  0  0  0  0  0  0  0  0
  -11.5094    1.4435    0.0000 C   0  0  0  0  0  0  0  0  0  0  0  0
  -10.3946    0.4398    0.0000 N   0  0  0  0  0  0  0  0  0  0  0  0
   -8.9681    0.9033    0.0000 C   0  0  0  0  0  0  0  0  0  0  0  0
   -8.6562    2.3705    0.0000 C   0  0  0  0  0  0  0  0  0  0  0  0
   -9.7709    3.3742    0.0000 C   0  0  0  0  0  0  0  0  0  0  0  0
  -16.0294    2.3035    0.0000 C   0  0  0  0  0  0  0  0  0  0  0  0
  -16.7794    3.6025    0.0000 C   0  0  0  0  0  0  0  0  0  0  0  0
  -16.0294    4.9015    0.0000 C   0  0  0  0  0  0  0  0  0  0  0  0
  -14.5294    4.9015    0.0000 C   0  0  0  0  0  0  0  0  0  0  0  0
  -13.7794    3.6025    0.0000 C   0  0  0  0  0  0  0  0  0  0  0  0
  -14.5294    2.3035    0.0000 C   0  0  0  0  0  0  0  0  0  0  0  0
  -12.3122    3.9144    0.0000 C   0  0  0  0  0  0  0  0  0  0  0  0
  -12.1554    5.4062    0.0000 C   0  0  0  0  0  0  0  0  0  0  0  0
  -10.8564    6.1562    0.0000 O   0  0  0  0  0  0  0  0  0  0  0  0
  -13.5257    6.0163    0.0000 N   0  0  0  0  0  0  0  0  0  0  0  0
  -16.7794    1.0044    0.0000 C   0  0  0  0  0  0  0  0  0  0  0  0
  -16.1693   -0.3659    0.0000 N   0  0  0  0  0  0  0  0  0  0  0  0
  -17.2840   -1.3696    0.0000 C   0  0  0  0  0  0  0  0  0  0  0  0
  -18.5831   -0.6196    0.0000 C   0  0  0  0  0  0  0  0  0  0  0  0
  -18.2712    0.8476    0.0000 N   0  0  0  0  0  0  0  0  0  0  0  0
  1  2  2  0
  2  3  1  0
  3  4  2  0
  4  5  1  0
  5  6  1  0
  6  7  2  0
  7  8  1  0
  8  9  1  0
  9  1  1  0
  9  5  2  0
 11 10  1  1
 11 12  1  0
 12 13  1  0
 11 14  1  0
 15 16  2  0
 16 17  1  0
 17 18  2  0
 18 19  1  0
 19 20  2  0
 20 15  1  0
 21 22  2  0
 22 23  1  0
 23 24  2  0
 24 25  1  0
 25 26  2  0
 25 27  1  0
 27 28  1  0
 28 29  2  0
 28 30  1  0
 26 21  1  0
 30 24  1  0
 31 32  2  0
 32 33  1  0
 33 34  2  0
 34 35  1  0
 35 31  1  0
  1 14  1  0
 13 19  1  0
 15 27  1  0
 21 31  1  0
M  END

