
     RDKit          2D

 32 35  0  0  0  0  0  0  0  0999 V2000
   -1.5000    2.5981    0.0000 F   0  0  0  0  0  0  0  0  0  0  0  0
    0.7500   -1.2990    0.0000 C   0  0  0  0  0  0  0  0  0  0  0  0
    1.5000    0.0000    0.0000 C   0  0  0  0  0  0  0  0  0  0  0  0
    0.7500    1.2990    0.0000 C   0  0  0  0  0  0  0  0  0  0  0  0
   -0.7500    1.2990    0.0000 C   0  0  0  0  0  0  0  0  0  0  0  0
   -1.5000    0.0000    0.0000 N   0  0  0  0  0  0  0  0  0  0  0  0
   -0.7500   -1.2990    0.0000 C   0  0  0  0  0  0  0  0  0  0  0  0
    0.2010   -3.3481    0.0000 O   0  0  0  0  0  0  0  0  0  0  0  0
    1.5000   -2.5981    0.0000 S   0  0  0  0  0  0  0  0  0  0  0  0
    2.7990   -1.8481    0.0000 O   0  0  0  0  0  0  0  0  0  0  0  0
    2.2500   -3.8971    0.0000 N   0  0  0  0  0  0  0  0  0  0  0  0
    4.5000   -5.1962    0.0000 C   0  0  0  0  0  0  0  0  0  0  0  0
    6.0000   -5.1962    0.0000 C   0  0  0  0  0  0  0  0  0  0  0  0
    6.7500   -3.8971    0.0000 C   0  0  0  0  0  0  0  0  0  0  0  0
    6.0000   -2.5981    0.0000 N   0  0  0  0  0  0  0  0  0  0  0  0
    4.5000   -2.5981    0.0000 C   0  0  0  0  0  0  0  0  0  0  0  0
    3.7500   -3.8971    0.0000 C   0  0  0  0  0  0  0  0  0  0  0  0
    3.7500   -1.2990    0.0000 Cl  0  0  0  0  0  0  0  0  0  0  0  0
    4.5000   -7.7942    0.0000 C   0  0  0  0  0  0  0  0  0  0  0  0
    3.7500   -6.4952    0.0000 N   0  0  0  0  0  0  0  0  0  0  0  0
    4.3601  -10.4636    0.0000 C   0  0  0  0  0  0  0  0  0  0  0  0
    3.2454  -11.4673    0.0000 C   0  0  0  0  0  0  0  0  0  0  0  0
    1.9463  -10.7173    0.0000 C   0  0  0  0  0  0  0  0  0  0  0  0
    2.2582   -9.2501    0.0000 C   0  0  0  0  0  0  0  0  0  0  0  0
    3.7500   -9.0933    0.0000 N   0  0  0  0  0  0  0  0  0  0  0  0
    7.9292  -11.9890    0.0000 C   0  0  0  0  0  0  0  0  0  0  0  0
    8.2411  -10.5218    0.0000 C   0  0  0  0  0  0  0  0  0  0  0  0
    6.9420   -9.7718    0.0000 C   0  0  0  0  0  0  0  0  0  0  0  0
    5.8273  -10.7755    0.0000 N   0  0  0  0  0  0  0  0  0  0  0  0
    6.4374  -12.1458    0.0000 N   0  0  0  0  0  0  0  0  0  0  0  0
    6.7853   -8.2800    0.0000 N   0  0  0  0  0  0  0  0  0  0  0  0
    8.9329  -13.1037    0.0000 C   0  0  0  0  0  0  0  0  0  0  0  0
  2  3  2  0
  3  4  1  0
  4  5  2  0
  5  6  1  0
  6  7  2  0
  7  2  1  0
  8  9  2  0
  9 10  2  0
  9 11  1  0
 12 13  2  0
 13 14  1  0
 14 15  2  0
 15 16  1  0
 16 17  2  0
 17 12  1  0
 19 20  1  0
 21 22  2  0
 22 23  1  0
 23 24  2  0
 24 25  1  0
 25 21  1  0
 26 27  1  0
 27 28  2  0
 28 29  1  0
 29 30  1  0
 30 26  2  0
  1  5  1  0
  2  9  1  0
 11 17  1  0
 16 18  1  0
 12 20  1  0
 19 25  1  0
 21 29  1  0
 28 31  1  0
 26 32  1  0
M  END

