
     RDKit          2D

 33 36  0  0  0  0  0  0  0  0999 V2000
   11.7276   -5.1572    0.0000 C   0  0  0  0  0  0  0  0  0  0  0  0
   10.9776   -6.4562    0.0000 C   0  0  0  0  0  0  0  0  0  0  0  0
    9.4776   -6.4562    0.0000 C   0  0  0  0  0  0  0  0  0  0  0  0
    8.7276   -7.7552    0.0000 N   0  0  0  0  0  0  0  0  0  0  0  0
    9.4776   -9.0543    0.0000 C   0  0  0  0  0  0  0  0  0  0  0  0
   10.9776   -9.0543    0.0000 N   0  0  0  0  0  0  0  0  0  0  0  0
    8.7276  -10.3533    0.0000 O   0  0  0  0  0  0  0  0  0  0  0  0
    7.2276   -7.7552    0.0000 C   0  0  0  0  0  0  0  0  0  0  0  0
    6.4776   -9.0543    0.0000 O   0  0  0  0  0  0  0  0  0  0  0  0
    6.4776   -6.4562    0.0000 N   0  0  0  0  0  0  0  0  0  0  0  0
    7.0877   -5.0859    0.0000 C   0  0  0  0  0  0  0  0  0  0  0  0
    8.5549   -4.7740    0.0000 O   0  0  0  0  0  0  0  0  0  0  0  0
    5.9730   -4.0822    0.0000 C   0  0  0  0  0  0  0  0  0  0  0  0
    4.6740   -4.8322    0.0000 C   0  0  0  0  0  0  0  0  0  0  0  0
    3.3037   -4.2221    0.0000 C   0  0  0  0  0  0  0  0  0  0  0  0
    2.0046   -4.9721    0.0000 N   0  0  0  0  0  0  0  0  0  0  0  0
    0.8899   -3.9684    0.0000 C   0  0  0  0  0  0  0  0  0  0  0  0
   -0.5773   -4.2803    0.0000 C   0  0  0  0  0  0  0  0  0  0  0  0
    1.5000   -2.5981    0.0000 C   0  0  0  0  0  0  0  0  0  0  0  0
    0.7500   -1.2990    0.0000 C   0  0  0  0  0  0  0  0  0  0  0  0
    1.5000    0.0000    0.0000 C   0  0  0  0  0  0  0  0  0  0  0  0
    0.7500    1.2990    0.0000 C   0  0  0  0  0  0  0  0  0  0  0  0
   -0.7500    1.2990    0.0000 N   0  0  0  0  0  0  0  0  0  0  0  0
   -1.5000    0.0000    0.0000 C   0  0  0  0  0  0  0  0  0  0  0  0
   -3.0000    0.0000    0.0000 C   0  0  0  0  0  0  0  0  0  0  0  0
   -3.2605   -1.4772    0.0000 C   0  0  0  0  0  0  0  0  0  0  0  0
   -3.5209   -2.9544    0.0000 N   0  0  0  0  0  0  0  0  0  0  0  0
   -4.4095    0.5130    0.0000 C   0  0  0  0  0  0  0  0  0  0  0  0
   -3.2605    1.4772    0.0000 C   0  0  0  0  0  0  0  0  0  0  0  0
   -0.7500   -1.2990    0.0000 C   0  0  0  0  0  0  0  0  0  0  0  0
    2.9918   -2.7549    0.0000 S   0  0  0  0  0  0  0  0  0  0  0  0
    4.9858   -6.2994    0.0000 C   0  0  0  0  0  0  0  0  0  0  0  0
    3.9821   -7.4141    0.0000 O   0  0  0  0  0  0  0  0  0  0  0  0
  1  2  1  0
  2  3  1  0
  3  4  1  0
  4  5  1  0
  5  6  1  0
  5  7  2  0
  4  8  1  0
  8  9  2  0
  8 10  1  0
 10 11  1  0
 11 12  2  0
 11 13  1  0
 13 14  2  0
 14 15  1  0
 15 16  2  0
 16 17  1  0
 17 18  1  0
 17 19  2  0
 19 20  1  0
 20 21  2  0
 21 22  1  0
 22 23  2  0
 23 24  1  0
 24 25  1  0
 25 26  1  0
 26 27  3  0
 25 28  1  0
 28 29  1  0
 24 30  2  0
 19 31  1  0
 14 32  1  0
 32 33  2  0
 32 10  1  0
 31 15  1  0
 30 20  1  0
 29 25  1  0
M  ISO  1  26  11
M  END

