
     RDKit          2D

 37 41  0  0  0  0  0  0  0  0999 V2000
    4.7612    8.1427    0.0000 O   0  0  0  0  0  0  0  0  0  0  0  0
    3.4622    8.8927    0.0000 C   0  0  0  0  0  0  0  0  0  0  0  0
    2.1631    8.1427    0.0000 C   0  0  0  0  0  0  0  0  0  0  0  0
   -0.5062    8.2826    0.0000 C   0  0  0  0  0  0  0  0  0  0  0  0
   -1.5099    9.3974    0.0000 N   0  0  0  0  0  0  0  0  0  0  0  0
   -0.7599   10.6964    0.0000 C   0  0  0  0  0  0  0  0  0  0  0  0
    0.7073   10.3845    0.0000 C   0  0  0  0  0  0  0  0  0  0  0  0
    0.8641    8.8927    0.0000 N   0  0  0  0  0  0  0  0  0  0  0  0
   -1.6237   14.4805    0.0000 C   0  0  0  0  0  0  0  0  0  0  0  0
   -2.9940   13.8704    0.0000 C   0  0  0  0  0  0  0  0  0  0  0  0
   -2.8372   12.3786    0.0000 N   0  0  0  0  0  0  0  0  0  0  0  0
   -1.3700   12.0667    0.0000 C   0  0  0  0  0  0  0  0  0  0  0  0
   -0.6200   13.3658    0.0000 N   0  0  0  0  0  0  0  0  0  0  0  0
   -5.0667   10.3712    0.0000 F   0  0  0  0  0  0  0  0  0  0  0  0
   -3.9520   11.3749    0.0000 C   0  0  0  0  0  0  0  0  0  0  0  0
   -4.9557   12.4896    0.0000 F   0  0  0  0  0  0  0  0  0  0  0  0
   -2.9483   10.2602    0.0000 F   0  0  0  0  0  0  0  0  0  0  0  0
   -1.3119   15.9477    0.0000 F   0  0  0  0  0  0  0  0  0  0  0  0
   -1.4418    3.8810    0.0000 N   0  0  0  0  0  0  0  0  0  0  0  0
   -0.0152    4.3445    0.0000 C   0  0  0  0  0  0  0  0  0  0  0  0
    0.2966    5.8117    0.0000 C   0  0  0  0  0  0  0  0  0  0  0  0
   -0.8181    6.8154    0.0000 C   0  0  0  0  0  0  0  0  0  0  0  0
   -2.2447    6.3519    0.0000 C   0  0  0  0  0  0  0  0  0  0  0  0
   -2.5565    4.8847    0.0000 C   0  0  0  0  0  0  0  0  0  0  0  0
    1.5000    0.0000    0.0000 C   0  0  0  0  0  0  0  0  0  0  0  0
    0.7500   -1.2990    0.0000 N   0  0  0  0  0  0  0  0  0  0  0  0
   -0.7500   -1.2990    0.0000 C   0  0  0  0  0  0  0  0  0  0  0  0
   -1.5000    0.0000    0.0000 C   0  0  0  0  0  0  0  0  0  0  0  0
   -2.9672    0.3119    0.0000 N   0  0  0  0  0  0  0  0  0  0  0  0
   -3.1240    1.8037    0.0000 C   0  0  0  0  0  0  0  0  0  0  0  0
   -1.7537    2.4138    0.0000 N   0  0  0  0  0  0  0  0  0  0  0  0
   -0.7500    1.2990    0.0000 C   0  0  0  0  0  0  0  0  0  0  0  0
    0.7500    1.2990    0.0000 N   0  0  0  0  0  0  0  0  0  0  0  0
   -4.4231    2.5537    0.0000 N   0  0  0  0  0  0  0  0  0  0  0  0
    3.7500   -1.2990    0.0000 N   0  0  0  0  0  0  0  0  0  0  0  0
    3.0000    0.0000    0.0000 C   0  0  0  0  0  0  0  0  0  0  0  0
    3.7500    1.2990    0.0000 O   0  0  0  0  0  0  0  0  0  0  0  0
  1  2  1  0
  2  3  1  0
  4  5  2  0
  5  6  1  0
  6  7  2  0
  7  8  1  0
  8  4  1  0
  9 10  2  0
 10 11  1  0
 11 12  1  0
 12 13  2  0
 13  9  1  0
 14 15  1  0
 15 16  1  0
 15 17  1  0
 19 20  1  0
 20 21  1  0
 21 22  1  0
 22 23  1  0
 23 24  1  0
 24 19  1  0
 25 26  2  0
 26 27  1  0
 27 28  2  0
 28 29  1  0
 29 30  2  0
 30 31  1  0
 31 32  1  0
 32 33  2  0
 33 25  1  0
 32 28  1  0
 35 36  1  0
 36 37  2  0
  3  8  1  0
  6 12  1  0
 11 15  1  0
  9 18  1  0
  4 22  1  0
 19 31  1  0
 30 34  1  0
 25 36  1  0
M  END

