
     RDKit          2D

 38 42  0  0  0  0  0  0  0  0999 V2000
    3.0000    0.0000    0.0000 C   0  0  0  0  0  0  0  0  0  0  0  0
    1.5000    0.0000    0.0000 C   0  0  0  0  0  0  0  0  0  0  0  0
    0.7500   -1.2990    0.0000 C   0  0  0  0  0  0  0  0  0  0  0  0
   -0.7500   -1.2990    0.0000 C   0  0  0  0  0  0  0  0  0  0  0  0
   -1.5000   -2.5981    0.0000 C   0  0  0  0  0  0  0  0  0  0  0  0
   -0.8899   -3.9684    0.0000 N   0  0  0  0  0  0  0  0  0  0  0  0
   -2.0046   -4.9721    0.0000 C   0  0  0  0  0  0  0  0  0  0  0  0
   -1.8478   -6.4639    0.0000 S   0  0  0  0  0  0  0  0  0  0  0  0
   -3.0613   -7.3456    0.0000 C   0  0  0  0  0  0  0  0  0  0  0  0
   -2.9046   -8.8373    0.0000 C   0  0  0  0  0  0  0  0  0  0  0  0
   -3.8485  -10.0031    0.0000 C   0  0  0  0  0  0  0  0  0  0  0  0
   -2.6828  -10.9470    0.0000 N   0  0  0  0  0  0  0  0  0  0  0  0
   -1.7388   -9.7813    0.0000 C   0  0  0  0  0  0  0  0  0  0  0  0
   -3.3037   -4.2221    0.0000 C   0  0  0  0  0  0  0  0  0  0  0  0
   -2.9918   -2.7549    0.0000 N   0  0  0  0  0  0  0  0  0  0  0  0
   -3.9955   -1.6402    0.0000 N   0  0  0  0  0  0  0  0  0  0  0  0
   -3.5320   -0.2136    0.0000 C   0  0  0  0  0  0  0  0  0  0  0  0
   -4.5356    0.9012    0.0000 C   0  0  0  0  0  0  0  0  0  0  0  0
   -6.0029    0.5893    0.0000 C   0  0  0  0  0  0  0  0  0  0  0  0
   -7.0066    1.7040    0.0000 C   0  0  0  0  0  0  0  0  0  0  0  0
   -6.5430    3.1306    0.0000 C   0  0  0  0  0  0  0  0  0  0  0  0
   -5.0758    3.4425    0.0000 O   0  0  0  0  0  0  0  0  0  0  0  0
   -4.6123    4.8690    0.0000 C   0  0  0  0  0  0  0  0  0  0  0  0
   -3.1451    5.1809    0.0000 C   0  0  0  0  0  0  0  0  0  0  0  0
   -1.6779    5.4928    0.0000 F   0  0  0  0  0  0  0  0  0  0  0  0
   -3.4569    6.6481    0.0000 F   0  0  0  0  0  0  0  0  0  0  0  0
   -2.8332    3.7137    0.0000 F   0  0  0  0  0  0  0  0  0  0  0  0
   -7.5467    4.2453    0.0000 N   0  0  0  0  0  0  0  0  0  0  0  0
   -9.0140    3.9334    0.0000 C   0  0  0  0  0  0  0  0  0  0  0  0
   -9.4775    2.5068    0.0000 N   0  0  0  0  0  0  0  0  0  0  0  0
   -8.4738    1.3921    0.0000 C   0  0  0  0  0  0  0  0  0  0  0  0
   -8.9373   -0.0345    0.0000 N   0  0  0  0  0  0  0  0  0  0  0  0
   -6.4664   -0.8373    0.0000 C   0  0  0  0  0  0  0  0  0  0  0  0
   -5.4627   -1.9520    0.0000 C   0  0  0  0  0  0  0  0  0  0  0  0
   -1.5000    0.0000    0.0000 C   0  0  0  0  0  0  0  0  0  0  0  0
   -0.7500    1.2990    0.0000 C   0  0  0  0  0  0  0  0  0  0  0  0
    0.7500    1.2990    0.0000 C   0  0  0  0  0  0  0  0  0  0  0  0
    1.5000    2.5981    0.0000 F   0  0  0  0  0  0  0  0  0  0  0  0
  1  2  1  0
  2  3  2  0
  3  4  1  0
  4  5  1  0
  5  6  2  0
  6  7  1  0
  7  8  1  0
  8  9  1  0
  9 10  1  0
 10 11  1  0
 11 12  1  0
 12 13  1  0
  7 14  2  0
 14 15  1  0
 15 16  1  0
 16 17  1  0
 17 18  1  0
 18 19  1  0
 19 20  1  0
 20 21  2  0
 21 22  1  0
 22 23  1  0
 23 24  1  0
 24 25  1  0
 24 26  1  0
 24 27  1  0
 21 28  1  0
 28 29  2  0
 29 30  1  0
 30 31  2  0
 31 32  1  0
 19 33  1  0
 33 34  1  0
  4 35  2  0
 35 36  1  0
 36 37  2  0
 37 38  1  0
 37  2  1  0
 15  5  1  0
 34 16  1  0
 13 10  1  0
 31 20  1  0
M  ISO  1  38  18
M  END

