
     RDKit          2D

 38 42  0  0  0  0  0  0  0  0999 V2000
   -1.5000   -2.5981    0.0000 C   0  0  0  0  0  0  0  0  0  0  0  0
    0.7500   -1.2990    0.0000 C   0  0  0  0  0  0  0  0  0  0  0  0
    1.5000    0.0000    0.0000 N   0  0  0  0  0  0  0  0  0  0  0  0
    0.7500    1.2990    0.0000 C   0  0  0  0  0  0  0  0  0  0  0  0
   -0.7500    1.2990    0.0000 C   0  0  0  0  0  0  0  0  0  0  0  0
   -1.5000    0.0000    0.0000 N   0  0  0  0  0  0  0  0  0  0  0  0
   -0.7500   -1.2990    0.0000 C   0  0  0  0  0  0  0  0  0  0  0  0
    3.3037    4.2221    0.0000 C   0  0  0  0  0  0  0  0  0  0  0  0
    2.0046    4.9721    0.0000 C   0  0  0  0  0  0  0  0  0  0  0  0
    0.8899    3.9684    0.0000 N   0  0  0  0  0  0  0  0  0  0  0  0
    1.5000    2.5981    0.0000 C   0  0  0  0  0  0  0  0  0  0  0  0
    2.9918    2.7549    0.0000 N   0  0  0  0  0  0  0  0  0  0  0  0
   -2.0445    4.5921    0.0000 F   0  0  0  0  0  0  0  0  0  0  0  0
   -0.5773    4.2803    0.0000 C   0  0  0  0  0  0  0  0  0  0  0  0
   -0.2655    5.7475    0.0000 F   0  0  0  0  0  0  0  0  0  0  0  0
   -0.8892    2.8130    0.0000 F   0  0  0  0  0  0  0  0  0  0  0  0
    8.4713    3.6789    0.0000 C   0  0  0  0  0  0  0  0  0  0  0  0
    7.2578    4.5606    0.0000 C   0  0  0  0  0  0  0  0  0  0  0  0
    5.8875    3.9505    0.0000 C   0  0  0  0  0  0  0  0  0  0  0  0
    4.6740    4.8322    0.0000 N   0  0  0  0  0  0  0  0  0  0  0  0
    0.7500   -4.9063    0.0000 N   0  0  0  0  0  0  0  0  0  0  0  0
    2.2500   -4.9063    0.0000 C   0  0  0  0  0  0  0  0  0  0  0  0
    2.7135   -3.4798    0.0000 C   0  0  0  0  0  0  0  0  0  0  0  0
    2.8703   -1.9880    0.0000 C   0  0  0  0  0  0  0  0  0  0  0  0
    1.5000   -2.5981    0.0000 C   0  0  0  0  0  0  0  0  0  0  0  0
    0.2865   -3.4798    0.0000 C   0  0  0  0  0  0  0  0  0  0  0  0
    0.4784   -7.4902    0.0000 C   0  0  0  0  0  0  0  0  0  0  0  0
   -0.4033   -8.7037    0.0000 C   0  0  0  0  0  0  0  0  0  0  0  0
   -1.8950   -8.5469    0.0000 N   0  0  0  0  0  0  0  0  0  0  0  0
   -2.5051   -7.1766    0.0000 C   0  0  0  0  0  0  0  0  0  0  0  0
   -1.6235   -5.9631    0.0000 N   0  0  0  0  0  0  0  0  0  0  0  0
   -0.1317   -6.1199    0.0000 C   0  0  0  0  0  0  0  0  0  0  0  0
    0.2069  -10.0740    0.0000 N   0  0  0  0  0  0  0  0  0  0  0  0
    6.1740  -10.7012    0.0000 C   0  0  0  0  0  0  0  0  0  0  0  0
    4.6822  -10.5444    0.0000 O   0  0  0  0  0  0  0  0  0  0  0  0
    4.0721   -9.1741    0.0000 C   0  0  0  0  0  0  0  0  0  0  0  0
    2.5803   -9.0173    0.0000 C   0  0  0  0  0  0  0  0  0  0  0  0
    1.9702   -7.6470    0.0000 C   0  0  0  0  0  0  0  0  0  0  0  0
  2  3  2  0
  3  4  1  0
  4  5  2  0
  5  6  1  0
  6  7  2  0
  7  2  1  0
  8  9  2  0
  9 10  1  0
 10 11  1  0
 11 12  2  0
 12  8  1  0
 13 14  1  0
 14 15  1  0
 14 16  1  0
 17 18  1  0
 18 19  1  0
 19 20  1  0
 21 22  1  0
 23 22  1  6
 23 24  1  0
 24 25  1  0
 25 26  1  0
 26 21  1  0
 25 23  1  0
 27 28  2  0
 28 29  1  0
 29 30  2  0
 30 31  1  0
 31 32  2  0
 32 27  1  0
 34 35  1  0
 35 36  1  0
 36 37  1  0
 37 38  2  0
  1  7  1  0
  4 11  1  0
 10 14  1  0
  8 20  1  0
 25  2  1  1
 21 32  1  0
 28 33  1  0
 27 38  1  0
M  END

