
     RDKit          2D

 46 51  0  0  0  0  0  0  0  0999 V2000
    0.1586   11.3773    0.0000 C   0  0  0  0  0  0  0  0  0  0  0  0
    1.1623   10.2626    0.0000 C   0  0  0  0  0  0  0  0  0  0  0  0
    0.6987    8.8360    0.0000 C   0  0  0  0  0  0  0  0  0  0  0  0
    1.2389    6.2947    0.0000 C   0  0  0  0  0  0  0  0  0  0  0  0
    2.2426    5.1800    0.0000 N   0  0  0  0  0  0  0  0  0  0  0  0
    3.7098    5.4919    0.0000 C   0  0  0  0  0  0  0  0  0  0  0  0
    4.1734    6.9185    0.0000 C   0  0  0  0  0  0  0  0  0  0  0  0
    3.1697    8.0332    0.0000 N   0  0  0  0  0  0  0  0  0  0  0  0
    1.7024    7.7213    0.0000 C   0  0  0  0  0  0  0  0  0  0  0  0
    7.1844    3.5743    0.0000 C   0  0  0  0  0  0  0  0  0  0  0  0
    6.7209    2.1477    0.0000 C   0  0  0  0  0  0  0  0  0  0  0  0
    5.2537    1.8359    0.0000 C   0  0  0  0  0  0  0  0  0  0  0  0
    4.2500    2.9506    0.0000 C   0  0  0  0  0  0  0  0  0  0  0  0
    4.7135    4.3772    0.0000 C   0  0  0  0  0  0  0  0  0  0  0  0
    6.1808    4.6890    0.0000 C   0  0  0  0  0  0  0  0  0  0  0  0
    1.3156    2.3268    0.0000 F   0  0  0  0  0  0  0  0  0  0  0  0
    2.7828    2.6387    0.0000 C   0  0  0  0  0  0  0  0  0  0  0  0
    2.4709    4.1059    0.0000 F   0  0  0  0  0  0  0  0  0  0  0  0
    3.0947    1.1715    0.0000 F   0  0  0  0  0  0  0  0  0  0  0  0
   12.1263    1.9686    0.0000 C   0  0  0  0  0  0  0  0  0  0  0  0
   11.1226    3.0833    0.0000 C   0  0  0  0  0  0  0  0  0  0  0  0
    9.6554    2.7715    0.0000 C   0  0  0  0  0  0  0  0  0  0  0  0
    8.6517    3.8862    0.0000 N   0  0  0  0  0  0  0  0  0  0  0  0
   -1.4418    3.8810    0.0000 N   0  0  0  0  0  0  0  0  0  0  0  0
   -2.4455    4.9957    0.0000 C   0  0  0  0  0  0  0  0  0  0  0  0
   -1.6955    6.2947    0.0000 C   0  0  0  0  0  0  0  0  0  0  0  0
   -0.6918    7.4094    0.0000 C   0  0  0  0  0  0  0  0  0  0  0  0
   -0.2283    5.9829    0.0000 C   0  0  0  0  0  0  0  0  0  0  0  0
   -0.0715    4.4911    0.0000 C   0  0  0  0  0  0  0  0  0  0  0  0
    1.5000    0.0000    0.0000 C   0  0  0  0  0  0  0  0  0  0  0  0
    0.7500   -1.2990    0.0000 N   0  0  0  0  0  0  0  0  0  0  0  0
   -0.7500   -1.2990    0.0000 C   0  0  0  0  0  0  0  0  0  0  0  0
   -1.5000    0.0000    0.0000 C   0  0  0  0  0  0  0  0  0  0  0  0
   -2.9672    0.3119    0.0000 N   0  0  0  0  0  0  0  0  0  0  0  0
   -3.1240    1.8037    0.0000 C   0  0  0  0  0  0  0  0  0  0  0  0
   -1.7537    2.4138    0.0000 N   0  0  0  0  0  0  0  0  0  0  0  0
   -0.7500    1.2990    0.0000 C   0  0  0  0  0  0  0  0  0  0  0  0
    0.7500    1.2990    0.0000 N   0  0  0  0  0  0  0  0  0  0  0  0
   -4.4231    2.5537    0.0000 N   0  0  0  0  0  0  0  0  0  0  0  0
    9.7500   -3.8971    0.0000 F   0  0  0  0  0  0  0  0  0  0  0  0
    8.2500   -3.8971    0.0000 C   0  0  0  0  0  0  0  0  0  0  0  0
    7.5000   -2.5981    0.0000 C   0  0  0  0  0  0  0  0  0  0  0  0
    6.0000   -2.5981    0.0000 O   0  0  0  0  0  0  0  0  0  0  0  0
    5.2500   -1.2990    0.0000 C   0  0  0  0  0  0  0  0  0  0  0  0
    3.7500   -1.2990    0.0000 C   0  0  0  0  0  0  0  0  0  0  0  0
    3.0000    0.0000    0.0000 O   0  0  0  0  0  0  0  0  0  0  0  0
  1  2  1  0
  2  3  1  0
  4  5  2  0
  5  6  1  0
  6  7  2  0
  7  8  1  0
  8  9  2  0
  9  4  1  0
 10 11  2  0
 11 12  1  0
 12 13  2  0
 13 14  1  0
 14 15  2  0
 15 10  1  0
 16 17  1  0
 17 18  1  0
 17 19  1  0
 20 21  1  0
 21 22  1  0
 22 23  1  0
 24 25  1  0
 26 25  1  1
 26 27  1  0
 27 28  1  0
 28 29  1  0
 29 24  1  0
 28 26  1  0
 30 31  2  0
 31 32  1  0
 32 33  2  0
 33 34  1  0
 34 35  2  0
 35 36  1  0
 36 37  1  0
 37 38  2  0
 38 30  1  0
 37 33  1  0
 40 41  1  0
 41 42  1  0
 42 43  1  0
 43 44  1  0
 44 45  1  0
 45 46  1  0
  3  9  1  0
  6 14  1  0
 13 17  1  0
 10 23  1  0
 28  4  1  6
 24 36  1  0
 35 39  1  0
 30 46  1  0
M  END

