
     RDKit          2D

 36 39  0  0  0  0  0  0  0  0999 V2000
   -4.5000    0.0000    0.0000 N   0  0  0  0  0  0  0  0  0  0  0  0
   -3.0000    0.0000    0.0000 C   0  0  0  0  0  0  0  0  0  0  0  0
    0.7500   -1.2990    0.0000 C   0  0  0  0  0  0  0  0  0  0  0  0
    1.5000    0.0000    0.0000 C   0  0  0  0  0  0  0  0  0  0  0  0
    0.7500    1.2990    0.0000 C   0  0  0  0  0  0  0  0  0  0  0  0
   -0.7500    1.2990    0.0000 C   0  0  0  0  0  0  0  0  0  0  0  0
   -1.5000    0.0000    0.0000 C   0  0  0  0  0  0  0  0  0  0  0  0
   -0.7500   -1.2990    0.0000 C   0  0  0  0  0  0  0  0  0  0  0  0
   -1.5000   -2.5981    0.0000 N   0  0  0  0  0  0  0  0  0  0  0  0
    1.5000   -5.1962    0.0000 C   0  0  0  0  0  0  0  0  0  0  0  0
    3.0000   -5.1962    0.0000 C   0  0  0  0  0  0  0  0  0  0  0  0
    3.7500   -3.8971    0.0000 C   0  0  0  0  0  0  0  0  0  0  0  0
    3.0000   -2.5981    0.0000 C   0  0  0  0  0  0  0  0  0  0  0  0
    1.5000   -2.5981    0.0000 N   0  0  0  0  0  0  0  0  0  0  0  0
    0.7500   -3.8971    0.0000 C   0  0  0  0  0  0  0  0  0  0  0  0
    0.2454   -8.8692    0.0000 C   0  0  0  0  0  0  0  0  0  0  0  0
   -1.0537   -8.1192    0.0000 C   0  0  0  0  0  0  0  0  0  0  0  0
   -0.7418   -6.6520    0.0000 N   0  0  0  0  0  0  0  0  0  0  0  0
    0.7500   -6.4952    0.0000 C   0  0  0  0  0  0  0  0  0  0  0  0
    1.3601   -7.8655    0.0000 N   0  0  0  0  0  0  0  0  0  0  0  0
   -3.2127   -5.8491    0.0000 C   0  0  0  0  0  0  0  0  0  0  0  0
   -1.7455   -5.5373    0.0000 O   0  0  0  0  0  0  0  0  0  0  0  0
   -4.7566   -2.1931    0.0000 C   0  0  0  0  0  0  0  0  0  0  0  0
   -3.7529   -3.3078    0.0000 C   0  0  0  0  0  0  0  0  0  0  0  0
   -4.2164   -4.7344    0.0000 N   0  0  0  0  0  0  0  0  0  0  0  0
   -5.6836   -5.0463    0.0000 C   0  0  0  0  0  0  0  0  0  0  0  0
    1.9293  -12.4629    0.0000 C   0  0  0  0  0  0  0  0  0  0  0  0
    0.7158  -13.3446    0.0000 C   0  0  0  0  0  0  0  0  0  0  0  0
   -0.6546  -12.7344    0.0000 C   0  0  0  0  0  0  0  0  0  0  0  0
   -0.8113  -11.2427    0.0000 C   0  0  0  0  0  0  0  0  0  0  0  0
    0.4022  -10.3610    0.0000 C   0  0  0  0  0  0  0  0  0  0  0  0
    1.7725  -10.9711    0.0000 C   0  0  0  0  0  0  0  0  0  0  0  0
    4.6699  -13.6831    0.0000 C   0  0  0  0  0  0  0  0  0  0  0  0
    3.2996  -13.0730    0.0000 S   0  0  0  0  0  0  0  0  0  0  0  0
    3.9097  -11.7027    0.0000 O   0  0  0  0  0  0  0  0  0  0  0  0
    2.6895  -14.4433    0.0000 O   0  0  0  0  0  0  0  0  0  0  0  0
  1  2  3  0
  3  4  2  0
  4  5  1  0
  5  6  2  0
  6  7  1  0
  7  8  2  0
  8  3  1  0
 10 11  1  0
 11 12  1  0
 12 13  1  0
 13 14  1  0
 14 15  1  0
 15 10  1  0
 16 17  2  0
 17 18  1  0
 18 19  1  0
 19 20  2  0
 20 16  1  0
 21 22  1  0
 23 24  1  0
 24 25  1  0
 25 26  1  0
 27 28  2  0
 28 29  1  0
 29 30  2  0
 30 31  1  0
 31 32  2  0
 32 27  1  0
 33 34  1  0
 34 35  2  0
 34 36  2  0
  2  7  1  0
  8  9  1  0
  3 14  1  0
 10 19  1  0
 18 22  1  0
 21 25  1  0
 16 31  1  0
 27 34  1  0
M  END

