
     RDKit          2D

 43 48  0  0  0  0  0  0  0  0999 V2000
    0.7500   -3.3689    0.0000 N   0  0  0  0  0  0  0  0  0  0  0  0
   -0.7500   -3.3689    0.0000 C   0  0  0  0  0  0  0  0  0  0  0  0
   -1.2135   -1.9423    0.0000 C   0  0  0  0  0  0  0  0  0  0  0  0
   -0.0000   -1.0607    0.0000 C   0  0  0  0  0  0  0  0  0  0  0  0
    1.0607    0.0000    0.0000 C   0  0  0  0  0  0  0  0  0  0  0  0
    0.0000    1.0607    0.0000 O   0  0  0  0  0  0  0  0  0  0  0  0
   -1.0607    0.0000    0.0000 C   0  0  0  0  0  0  0  0  0  0  0  0
    1.2135   -1.9423    0.0000 C   0  0  0  0  0  0  0  0  0  0  0  0
    1.0216   -5.9528    0.0000 C   0  0  0  0  0  0  0  0  0  0  0  0
    1.6317   -4.5824    0.0000 C   0  0  0  0  0  0  0  0  0  0  0  0
    3.4033   -7.1663    0.0000 C   0  0  0  0  0  0  0  0  0  0  0  0
    3.8668   -8.5929    0.0000 N   0  0  0  0  0  0  0  0  0  0  0  0
    2.6533   -9.4746    0.0000 C   0  0  0  0  0  0  0  0  0  0  0  0
    1.4397   -8.5929    0.0000 C   0  0  0  0  0  0  0  0  0  0  0  0
    1.9033   -7.1663    0.0000 N   0  0  0  0  0  0  0  0  0  0  0  0
    3.9523  -13.2246    0.0000 C   0  0  0  0  0  0  0  0  0  0  0  0
    2.6533  -13.9746    0.0000 C   0  0  0  0  0  0  0  0  0  0  0  0
    1.3542  -13.2246    0.0000 C   0  0  0  0  0  0  0  0  0  0  0  0
    1.3542  -11.7246    0.0000 C   0  0  0  0  0  0  0  0  0  0  0  0
    2.6533  -10.9746    0.0000 C   0  0  0  0  0  0  0  0  0  0  0  0
    3.9523  -11.7246    0.0000 C   0  0  0  0  0  0  0  0  0  0  0  0
   -3.8419  -11.7246    0.0000 C   0  0  0  0  0  0  0  0  0  0  0  0
   -2.5429  -10.9746    0.0000 C   0  0  0  0  0  0  0  0  0  0  0  0
   -1.2439  -11.7246    0.0000 C   0  0  0  0  0  0  0  0  0  0  0  0
    0.0552  -10.9746    0.0000 N   0  0  0  0  0  0  0  0  0  0  0  0
    5.2513  -13.9746    0.0000 F   0  0  0  0  0  0  0  0  0  0  0  0
    6.0483   -3.5257    0.0000 N   0  0  0  0  0  0  0  0  0  0  0  0
    4.5565   -3.3689    0.0000 C   0  0  0  0  0  0  0  0  0  0  0  0
    3.6748   -4.5824    0.0000 C   0  0  0  0  0  0  0  0  0  0  0  0
    4.2849   -5.9528    0.0000 C   0  0  0  0  0  0  0  0  0  0  0  0
    5.7767   -6.1096    0.0000 C   0  0  0  0  0  0  0  0  0  0  0  0
    6.6584   -4.8960    0.0000 C   0  0  0  0  0  0  0  0  0  0  0  0
    6.3199   -0.9419    0.0000 C   0  0  0  0  0  0  0  0  0  0  0  0
    7.2015    0.2717    0.0000 C   0  0  0  0  0  0  0  0  0  0  0  0
    8.6933    0.1149    0.0000 N   0  0  0  0  0  0  0  0  0  0  0  0
    9.3034   -1.2555    0.0000 C   0  0  0  0  0  0  0  0  0  0  0  0
    8.4217   -2.4690    0.0000 N   0  0  0  0  0  0  0  0  0  0  0  0
    6.9300   -2.3122    0.0000 C   0  0  0  0  0  0  0  0  0  0  0  0
    6.8630    4.2258    0.0000 C   0  0  0  0  0  0  0  0  0  0  0  0
    7.4731    2.8555    0.0000 O   0  0  0  0  0  0  0  0  0  0  0  0
    6.5914    1.6420    0.0000 C   0  0  0  0  0  0  0  0  0  0  0  0
    4.2180    0.5852    0.0000 C   0  0  0  0  0  0  0  0  0  0  0  0
    4.8281   -0.7851    0.0000 C   0  0  0  0  0  0  0  0  0  0  0  0
  1  2  1  0
  2  3  1  0
  3  4  1  0
  4  5  1  0
  5  6  1  0
  6  7  1  0
  4  8  1  0
  8  1  1  0
  7  4  1  0
  9 10  1  0
 11 12  2  0
 12 13  1  0
 13 14  2  0
 14 15  1  0
 15 11  1  0
 16 17  2  0
 17 18  1  0
 18 19  2  0
 19 20  1  0
 20 21  2  0
 21 16  1  0
 22 23  1  0
 23 24  1  0
 24 25  1  0
 27 28  1  0
 28 29  1  0
 29 30  1  0
 30 31  1  0
 31 32  1  0
 32 27  1  0
 33 34  2  0
 34 35  1  0
 35 36  2  0
 36 37  1  0
 37 38  2  0
 38 33  1  0
 39 40  1  0
 40 41  1  0
 42 43  1  0
  1 10  1  0
  9 15  1  0
 13 20  1  0
 19 25  1  0
 16 26  1  0
 11 30  1  0
 27 38  1  0
 34 41  1  0
 33 43  1  0
M  END

