
     RDKit          2D

 29 33  0  0  0  0  0  0  0  0999 V2000
   -2.1895    1.4851    0.0000 N   0  0  0  0  0  0  0  0  0  0  0  0
   -0.8192    2.0952    0.0000 C   0  0  0  0  0  0  0  0  0  0  0  0
    0.3943    1.2135    0.0000 C   0  0  0  0  0  0  0  0  0  0  0  0
    1.2760    0.0000    0.0000 C   0  0  0  0  0  0  0  0  0  0  0  0
    0.3943   -1.2135    0.0000 C   0  0  0  0  0  0  0  0  0  0  0  0
   -1.0323   -0.7500    0.0000 C   0  0  0  0  0  0  0  0  0  0  0  0
   -2.3463   -0.0067    0.0000 C   0  0  0  0  0  0  0  0  0  0  0  0
   -1.0323    0.7500    0.0000 O   0  0  0  0  0  0  0  0  0  0  0  0
   -5.7113    3.1168    0.0000 C   0  0  0  0  0  0  0  0  0  0  0  0
   -4.8297    4.3303    0.0000 C   0  0  0  0  0  0  0  0  0  0  0  0
   -3.4031    3.8668    0.0000 C   0  0  0  0  0  0  0  0  0  0  0  0
   -3.4031    2.3668    0.0000 N   0  0  0  0  0  0  0  0  0  0  0  0
   -4.8297    1.9033    0.0000 N   0  0  0  0  0  0  0  0  0  0  0  0
   -2.1895    4.7485    0.0000 N   0  0  0  0  0  0  0  0  0  0  0  0
   -0.8192    4.1383    0.0000 C   0  0  0  0  0  0  0  0  0  0  0  0
    0.3943    5.0200    0.0000 C   0  0  0  0  0  0  0  0  0  0  0  0
    0.2375    6.5118    0.0000 O   0  0  0  0  0  0  0  0  0  0  0  0
   -1.1328    7.1219    0.0000 C   0  0  0  0  0  0  0  0  0  0  0  0
   -2.3463    6.2402    0.0000 C   0  0  0  0  0  0  0  0  0  0  0  0
  -10.2113    3.1168    0.0000 C   0  0  0  0  0  0  0  0  0  0  0  0
   -9.4613    4.4158    0.0000 C   0  0  0  0  0  0  0  0  0  0  0  0
   -7.9613    4.4158    0.0000 C   0  0  0  0  0  0  0  0  0  0  0  0
   -7.2113    3.1168    0.0000 C   0  0  0  0  0  0  0  0  0  0  0  0
   -7.9613    1.8177    0.0000 C   0  0  0  0  0  0  0  0  0  0  0  0
   -9.4613    1.8177    0.0000 N   0  0  0  0  0  0  0  0  0  0  0  0
   -7.9613    7.0139    0.0000 F   0  0  0  0  0  0  0  0  0  0  0  0
   -7.2113    5.7149    0.0000 C   0  0  0  0  0  0  0  0  0  0  0  0
   -5.7113    5.7149    0.0000 F   0  0  0  0  0  0  0  0  0  0  0  0
  -11.7113    3.1168    0.0000 N   0  0  0  0  0  0  0  0  0  0  0  0
  1  2  1  0
  2  3  1  0
  3  4  1  0
  4  5  1  0
  5  6  1  0
  6  7  1  0
  6  8  1  0
  7  1  1  0
  8  3  1  0
  9 10  1  0
 10 11  2  0
 11 12  1  0
 12 13  1  0
 13  9  2  0
 14 15  1  0
 15 16  1  0
 16 17  1  0
 17 18  1  0
 18 19  1  0
 19 14  1  0
 20 21  2  0
 21 22  1  0
 22 23  2  0
 23 24  1  0
 24 25  2  0
 25 20  1  0
 26 27  1  0
 27 28  1  0
  1 12  1  0
 11 14  1  0
  9 23  1  0
 22 27  1  0
 20 29  1  0
M  END

