
     RDKit          2D

 38 41  0  0  0  0  0  0  0  0999 V2000
    6.0000   -2.5981    0.0000 C   0  0  0  0  0  0  0  0  0  0  0  0
    5.2500   -1.2990    0.0000 O   0  0  0  0  0  0  0  0  0  0  0  0
    3.7500   -1.2990    0.0000 N   0  0  0  0  0  0  0  0  0  0  0  0
    3.0000   -0.0000    0.0000 C   0  0  0  0  0  0  0  0  0  0  0  0
    3.7500    1.2990    0.0000 C   0  0  0  0  0  0  0  0  0  0  0  0
    0.7500   -1.2990    0.0000 C   0  0  0  0  0  0  0  0  0  0  0  0
   -0.7500   -1.2990    0.0000 N   0  0  0  0  0  0  0  0  0  0  0  0
   -1.5000    0.0000    0.0000 C   0  0  0  0  0  0  0  0  0  0  0  0
   -0.7500    1.2990    0.0000 N   0  0  0  0  0  0  0  0  0  0  0  0
    0.7500    1.2990    0.0000 C   0  0  0  0  0  0  0  0  0  0  0  0
    1.5000   -0.0000    0.0000 C   0  0  0  0  0  0  0  0  0  0  0  0
    2.2500    3.8971    0.0000 C   0  0  0  0  0  0  0  0  0  0  0  0
    1.5000    2.5981    0.0000 C   0  0  0  0  0  0  0  0  0  0  0  0
    1.5000   -5.1962    0.0000 C   0  0  0  0  0  0  0  0  0  0  0  0
    3.0000   -5.1962    0.0000 C   0  0  0  0  0  0  0  0  0  0  0  0
    3.7500   -3.8971    0.0000 C   0  0  0  0  0  0  0  0  0  0  0  0
    3.0000   -2.5981    0.0000 C   0  0  0  0  0  0  0  0  0  0  0  0
    1.5000   -2.5981    0.0000 N   0  0  0  0  0  0  0  0  0  0  0  0
    0.7500   -3.8971    0.0000 C   0  0  0  0  0  0  0  0  0  0  0  0
    1.3601   -7.8655    0.0000 N   0  0  0  0  0  0  0  0  0  0  0  0
    0.2454   -8.8692    0.0000 C   0  0  0  0  0  0  0  0  0  0  0  0
   -1.0537   -8.1192    0.0000 C   0  0  0  0  0  0  0  0  0  0  0  0
   -0.7418   -6.6520    0.0000 N   0  0  0  0  0  0  0  0  0  0  0  0
    0.7500   -6.4952    0.0000 C   0  0  0  0  0  0  0  0  0  0  0  0
   -5.0078   -8.4577    0.0000 C   0  0  0  0  0  0  0  0  0  0  0  0
   -5.1646   -9.9495    0.0000 C   0  0  0  0  0  0  0  0  0  0  0  0
   -3.9511  -10.8312    0.0000 C   0  0  0  0  0  0  0  0  0  0  0  0
   -2.5808  -10.2211    0.0000 C   0  0  0  0  0  0  0  0  0  0  0  0
   -2.4240   -8.7293    0.0000 C   0  0  0  0  0  0  0  0  0  0  0  0
   -3.6375   -7.8476    0.0000 C   0  0  0  0  0  0  0  0  0  0  0  0
   -7.4349   -6.6944    0.0000 F   0  0  0  0  0  0  0  0  0  0  0  0
   -6.2213   -7.5761    0.0000 C   0  0  0  0  0  0  0  0  0  0  0  0
   -7.1030   -8.7896    0.0000 F   0  0  0  0  0  0  0  0  0  0  0  0
   -5.3397   -6.3625    0.0000 F   0  0  0  0  0  0  0  0  0  0  0  0
    5.2216  -11.3424    0.0000 C   0  0  0  0  0  0  0  0  0  0  0  0
    4.7581   -9.9158    0.0000 N   0  0  0  0  0  0  0  0  0  0  0  0
    3.2909   -9.6040    0.0000 C   0  0  0  0  0  0  0  0  0  0  0  0
    2.8273   -8.1774    0.0000 C   0  0  0  0  0  0  0  0  0  0  0  0
  1  2  1  0
  2  3  1  0
  3  4  2  0
  4  5  1  0
  6  7  2  0
  7  8  1  0
  8  9  2  0
  9 10  1  0
 10 11  2  0
 11  6  1  0
 12 13  3  0
 14 15  1  0
 15 16  1  0
 16 17  1  0
 17 18  1  0
 18 19  1  0
 19 14  1  0
 20 21  1  0
 21 22  2  0
 22 23  1  0
 23 24  2  0
 24 20  1  0
 25 26  2  0
 26 27  1  0
 27 28  2  0
 28 29  1  0
 29 30  2  0
 30 25  1  0
 31 32  1  0
 32 33  1  0
 32 34  1  0
 35 36  1  0
 36 37  1  0
 37 38  1  0
  4 11  1  0
 10 13  1  0
  6 18  1  0
 14 24  1  0
 22 29  1  0
 25 32  1  0
 20 38  1  0
M  END

