
     RDKit          2D

 25 27  0  0  0  0  0  0  0  0999 V2000
    3.9627    4.5501    0.0000 C   0  0  0  0  0  0  0  0  0  0  0  0
    2.4955    4.2382    0.0000 O   0  0  0  0  0  0  0  0  0  0  0  0
    0.5046    7.5702    0.0000 C   0  0  0  0  0  0  0  0  0  0  0  0
   -0.6101    6.5665    0.0000 N   0  0  0  0  0  0  0  0  0  0  0  0
    0.0000    5.1962    0.0000 C   0  0  0  0  0  0  0  0  0  0  0  0
    1.4918    5.3529    0.0000 N   0  0  0  0  0  0  0  0  0  0  0  0
    1.8037    6.8202    0.0000 N   0  0  0  0  0  0  0  0  0  0  0  0
    0.5490    3.1471    0.0000 O   0  0  0  0  0  0  0  0  0  0  0  0
   -0.7500    3.8971    0.0000 S   0  0  0  0  0  0  0  0  0  0  0  0
   -2.0490    4.6471    0.0000 O   0  0  0  0  0  0  0  0  0  0  0  0
   -1.5000    2.5981    0.0000 N   0  0  0  0  0  0  0  0  0  0  0  0
    0.7500   -1.2990    0.0000 C   0  0  0  0  0  0  0  0  0  0  0  0
    1.5000    0.0000    0.0000 C   0  0  0  0  0  0  0  0  0  0  0  0
    0.7500    1.2990    0.0000 C   0  0  0  0  0  0  0  0  0  0  0  0
   -0.7500    1.2990    0.0000 C   0  0  0  0  0  0  0  0  0  0  0  0
   -1.5000    0.0000    0.0000 C   0  0  0  0  0  0  0  0  0  0  0  0
   -0.7500   -1.2990    0.0000 C   0  0  0  0  0  0  0  0  0  0  0  0
    1.5000   -2.5981    0.0000 N   0  0  0  0  0  0  0  0  0  0  0  0
    0.7500   -3.8971    0.0000 C   0  0  0  0  0  0  0  0  0  0  0  0
    1.3601   -5.2674    0.0000 C   0  0  0  0  0  0  0  0  0  0  0  0
    0.2454   -6.2711    0.0000 C   0  0  0  0  0  0  0  0  0  0  0  0
   -1.0537   -5.5211    0.0000 C   0  0  0  0  0  0  0  0  0  0  0  0
   -0.7418   -4.0539    0.0000 O   0  0  0  0  0  0  0  0  0  0  0  0
    1.5613    9.9436    0.0000 C   0  0  0  0  0  0  0  0  0  0  0  0
    0.3478    9.0619    0.0000 O   0  0  0  0  0  0  0  0  0  0  0  0
  1  2  1  0
  3  4  1  0
  4  5  2  0
  5  6  1  0
  6  7  1  0
  7  3  2  0
  8  9  2  0
  9 10  2  0
  9 11  1  0
 12 13  2  0
 13 14  1  0
 14 15  2  0
 15 16  1  0
 16 17  2  0
 17 12  1  0
 19 20  2  0
 20 21  1  0
 21 22  2  0
 22 23  1  0
 23 19  1  0
 24 25  1  0
  2  6  1  0
  5  9  1  0
 11 15  1  0
 12 18  1  0
 18 19  1  0
  3 25  1  0
M  ISO  1   1  11
M  END

