
     RDKit          2D

 32 37  0  0  0  0  0  0  0  0999 V2000
    1.6317   -0.0855    0.0000 N   0  0  0  0  0  0  0  0  0  0  0  0
    3.1317   -0.0855    0.0000 C   0  0  0  0  0  0  0  0  0  0  0  0
    3.5952    1.3411    0.0000 C   0  0  0  0  0  0  0  0  0  0  0  0
    2.3817    2.2228    0.0000 C   0  0  0  0  0  0  0  0  0  0  0  0
    1.1682    1.3411    0.0000 C   0  0  0  0  0  0  0  0  0  0  0  0
    1.2135   -2.7256    0.0000 N   0  0  0  0  0  0  0  0  0  0  0  0
   -0.0000   -3.6073    0.0000 C   0  0  0  0  0  0  0  0  0  0  0  0
   -0.1568   -5.0991    0.0000 C   0  0  0  0  0  0  0  0  0  0  0  0
   -1.5271   -5.7092    0.0000 C   0  0  0  0  0  0  0  0  0  0  0  0
   -2.7406   -4.8275    0.0000 C   0  0  0  0  0  0  0  0  0  0  0  0
   -2.5838   -3.3357    0.0000 C   0  0  0  0  0  0  0  0  0  0  0  0
   -1.2135   -2.7256    0.0000 C   0  0  0  0  0  0  0  0  0  0  0  0
   -0.7500   -1.2990    0.0000 C   0  0  0  0  0  0  0  0  0  0  0  0
    0.7500   -1.2990    0.0000 C   0  0  0  0  0  0  0  0  0  0  0  0
    4.4438   -1.5651    0.0000 C   0  0  0  0  0  0  0  0  0  0  0  0
    5.0539   -2.9355    0.0000 C   0  0  0  0  0  0  0  0  0  0  0  0
    3.9391   -3.9391    0.0000 O   0  0  0  0  0  0  0  0  0  0  0  0
    2.6401   -3.1891    0.0000 C   0  0  0  0  0  0  0  0  0  0  0  0
    2.9520   -1.7219    0.0000 O   0  0  0  0  0  0  0  0  0  0  0  0
   -1.4814   -6.5997    0.0000 O   0  0  0  0  0  0  0  0  0  0  0  0
   -0.0719   -6.0866    0.0000 C   0  0  0  0  0  0  0  0  0  0  0  0
    0.5382   -4.7163    0.0000 C   0  0  0  0  0  0  0  0  0  0  0  0
    2.0300   -4.5595    0.0000 C   0  0  0  0  0  0  0  0  0  0  0  0
    2.9117   -5.7730    0.0000 N   0  0  0  0  0  0  0  0  0  0  0  0
    2.3016   -7.1433    0.0000 C   0  0  0  0  0  0  0  0  0  0  0  0
    0.8098   -7.3001    0.0000 N   0  0  0  0  0  0  0  0  0  0  0  0
    3.1833   -8.3568    0.0000 N   0  0  0  0  0  0  0  0  0  0  0  0
    2.5732   -9.7272    0.0000 C   0  0  0  0  0  0  0  0  0  0  0  0
    3.4548  -10.9407    0.0000 C   0  0  0  0  0  0  0  0  0  0  0  0
    4.9466  -10.7839    0.0000 O   0  0  0  0  0  0  0  0  0  0  0  0
    5.5567   -9.4136    0.0000 C   0  0  0  0  0  0  0  0  0  0  0  0
    4.6750   -8.2000    0.0000 C   0  0  0  0  0  0  0  0  0  0  0  0
  1  2  1  0
  2  3  2  0
  3  4  1  0
  4  5  2  0
  5  1  1  0
  6  7  1  0
  7  8  2  0
  8  9  1  0
  9 10  2  0
 10 11  1  0
 11 12  2  0
 12 13  1  0
 13 14  1  0
 14  6  1  0
 12  7  1  0
 15 16  1  6
 16 17  1  0
 17 18  1  0
 18 19  1  0
 19 15  1  0
 20 21  2  0
 21 22  1  0
 22 23  2  0
 23 24  1  0
 24 25  2  0
 25 26  1  0
 26 21  1  0
 27 28  1  0
 28 29  1  0
 29 30  1  0
 30 31  1  0
 31 32  1  0
 32 27  1  0
  1 14  1  0
  6 18  1  0
 18 23  1  6
 25 27  1  0
M  END

