
     RDKit          2D

 32 36  0  0  0  0  0  0  0  0999 V2000
   -7.0684   -5.5879    0.0000 C   0  0  0  0  0  0  0  0  0  0  0  0
   -4.5729   -4.6300    0.0000 N   0  0  0  0  0  0  0  0  0  0  0  0
   -3.2026   -5.2401    0.0000 C   0  0  0  0  0  0  0  0  0  0  0  0
   -3.3594   -6.7319    0.0000 C   0  0  0  0  0  0  0  0  0  0  0  0
   -4.8266   -7.0437    0.0000 C   0  0  0  0  0  0  0  0  0  0  0  0
   -5.5766   -5.7447    0.0000 C   0  0  0  0  0  0  0  0  0  0  0  0
   -3.9831   -9.6663    0.0000 O   0  0  0  0  0  0  0  0  0  0  0  0
   -2.5565   -9.2028    0.0000 C   0  0  0  0  0  0  0  0  0  0  0  0
   -1.4418  -10.2065    0.0000 N   0  0  0  0  0  0  0  0  0  0  0  0
   -2.2447   -7.7356    0.0000 N   0  0  0  0  0  0  0  0  0  0  0  0
   -1.7537  -11.6737    0.0000 C   0  0  0  0  0  0  0  0  0  0  0  0
   -0.7500  -12.7884    0.0000 C   0  0  0  0  0  0  0  0  0  0  0  0
   -1.5000  -14.0874    0.0000 C   0  0  0  0  0  0  0  0  0  0  0  0
   -2.9672  -13.7756    0.0000 C   0  0  0  0  0  0  0  0  0  0  0  0
   -3.1240  -12.2838    0.0000 O   0  0  0  0  0  0  0  0  0  0  0  0
   -6.6232   -1.2320    0.0000 C   0  0  0  0  0  0  0  0  0  0  0  0
   -5.5085   -0.2283    0.0000 N   0  0  0  0  0  0  0  0  0  0  0  0
   -4.0819   -0.6918    0.0000 C   0  0  0  0  0  0  0  0  0  0  0  0
   -3.7701   -2.1590    0.0000 C   0  0  0  0  0  0  0  0  0  0  0  0
   -4.8848   -3.1627    0.0000 C   0  0  0  0  0  0  0  0  0  0  0  0
   -6.3114   -2.6992    0.0000 N   0  0  0  0  0  0  0  0  0  0  0  0
    1.5000    0.0000    0.0000 C   0  0  0  0  0  0  0  0  0  0  0  0
    0.7500   -1.2990    0.0000 C   0  0  0  0  0  0  0  0  0  0  0  0
   -0.7500   -1.2990    0.0000 C   0  0  0  0  0  0  0  0  0  0  0  0
   -1.5000    0.0000    0.0000 C   0  0  0  0  0  0  0  0  0  0  0  0
   -2.9672    0.3119    0.0000 C   0  0  0  0  0  0  0  0  0  0  0  0
   -3.1240    1.8037    0.0000 N   0  0  0  0  0  0  0  0  0  0  0  0
   -1.7537    2.4138    0.0000 N   0  0  0  0  0  0  0  0  0  0  0  0
   -0.7500    1.2990    0.0000 C   0  0  0  0  0  0  0  0  0  0  0  0
    0.7500    1.2990    0.0000 C   0  0  0  0  0  0  0  0  0  0  0  0
    3.0000    0.0000    0.0000 N   0  0  0  0  0  0  0  0  0  0  0  0
   -8.0498   -0.7685    0.0000 S   0  0  0  0  0  0  0  0  0  0  0  0
  2  3  1  0
  3  4  1  0
  4  5  1  0
  5  6  1  0
  6  2  1  0
  7  8  2  0
  8  9  1  0
  8 10  1  0
 11 12  1  0
 12 13  1  0
 13 14  1  0
 14 15  1  0
 15 11  1  0
 16 17  2  0
 17 18  1  0
 18 19  2  0
 19 20  1  0
 20 21  2  0
 21 16  1  0
 22 23  2  0
 23 24  1  0
 24 25  2  0
 25 26  1  0
 26 27  2  0
 27 28  1  0
 28 29  1  0
 29 30  2  0
 30 22  1  0
 29 25  1  0
  6  1  1  6
  4 10  1  1
  9 11  1  0
  2 20  1  0
 18 26  1  0
 22 31  1  0
 16 32  1  0
M  END

