
     RDKit          2D

 35 40  0  0  0  0  0  0  0  0999 V2000
   -3.7500   -3.8971    0.0000 N   0  0  0  0  0  0  0  0  0  0  0  0
   -3.1399   -5.2674    0.0000 C   0  0  0  0  0  0  0  0  0  0  0  0
   -4.2546   -6.2711    0.0000 C   0  0  0  0  0  0  0  0  0  0  0  0
   -5.5537   -5.5211    0.0000 C   0  0  0  0  0  0  0  0  0  0  0  0
   -5.2418   -4.0539    0.0000 C   0  0  0  0  0  0  0  0  0  0  0  0
   -1.5000   -2.5981    0.0000 C   0  0  0  0  0  0  0  0  0  0  0  0
   -3.0000   -2.5981    0.0000 C   0  0  0  0  0  0  0  0  0  0  0  0
    0.7500   -1.2990    0.0000 C   0  0  0  0  0  0  0  0  0  0  0  0
    1.5000    0.0000    0.0000 C   0  0  0  0  0  0  0  0  0  0  0  0
    0.7500    1.2990    0.0000 C   0  0  0  0  0  0  0  0  0  0  0  0
   -0.7500    1.2990    0.0000 C   0  0  0  0  0  0  0  0  0  0  0  0
   -1.5000    0.0000    0.0000 C   0  0  0  0  0  0  0  0  0  0  0  0
   -0.7500   -1.2990    0.0000 C   0  0  0  0  0  0  0  0  0  0  0  0
    1.5000    5.1962    0.0000 C   0  0  0  0  0  0  0  0  0  0  0  0
    3.0000    5.1962    0.0000 C   0  0  0  0  0  0  0  0  0  0  0  0
    3.7500    3.8971    0.0000 C   0  0  0  0  0  0  0  0  0  0  0  0
    3.0000    2.5981    0.0000 C   0  0  0  0  0  0  0  0  0  0  0  0
    1.5000    2.5981    0.0000 C   0  0  0  0  0  0  0  0  0  0  0  0
    0.7500    3.8971    0.0000 C   0  0  0  0  0  0  0  0  0  0  0  0
    0.7500    6.4952    0.0000 Cl  0  0  0  0  0  0  0  0  0  0  0  0
    3.8740   -3.1027    0.0000 N   0  0  0  0  0  0  0  0  0  0  0  0
    3.1240   -4.4017    0.0000 C   0  0  0  0  0  0  0  0  0  0  0  0
    1.6568   -4.0899    0.0000 C   0  0  0  0  0  0  0  0  0  0  0  0
    0.2865   -3.4798    0.0000 C   0  0  0  0  0  0  0  0  0  0  0  0
    1.5000   -2.5981    0.0000 C   0  0  0  0  0  0  0  0  0  0  0  0
    2.8703   -1.9880    0.0000 C   0  0  0  0  0  0  0  0  0  0  0  0
    5.9759   -1.5756    0.0000 C   0  0  0  0  0  0  0  0  0  0  0  0
    7.4677   -1.4188    0.0000 C   0  0  0  0  0  0  0  0  0  0  0  0
    8.3494   -2.6323    0.0000 N   0  0  0  0  0  0  0  0  0  0  0  0
    7.7393   -4.0026    0.0000 C   0  0  0  0  0  0  0  0  0  0  0  0
    6.2475   -4.1594    0.0000 N   0  0  0  0  0  0  0  0  0  0  0  0
    5.3658   -2.9459    0.0000 C   0  0  0  0  0  0  0  0  0  0  0  0
    8.0778   -0.0485    0.0000 N   0  0  0  0  0  0  0  0  0  0  0  0
    5.7043    1.0083    0.0000 C   0  0  0  0  0  0  0  0  0  0  0  0
    5.0942   -0.3621    0.0000 C   0  0  0  0  0  0  0  0  0  0  0  0
  1  2  1  0
  2  3  1  0
  3  4  1  0
  4  5  1  0
  5  1  1  0
  6  7  1  0
  8  9  2  0
  9 10  1  0
 10 11  2  0
 11 12  1  0
 12 13  2  0
 13  8  1  0
 14 15  2  0
 15 16  1  0
 16 17  2  0
 17 18  1  0
 18 19  2  0
 19 14  1  0
 21 22  1  0
 23 22  1  1
 23 24  1  0
 24 25  1  0
 25 26  1  0
 26 21  1  0
 25 23  1  0
 27 28  2  0
 28 29  1  0
 29 30  2  0
 30 31  1  0
 31 32  2  0
 32 27  1  0
 34 35  1  0
  1  7  1  0
  6 13  1  0
 10 18  1  0
 14 20  1  0
 25  8  1  6
 21 32  1  0
 28 33  1  0
 27 35  1  0
M  END

