
     RDKit          2D

 33 36  0  0  0  0  0  0  0  0999 V2000
   -6.2000    1.2931    0.0000 N   0  0  0  0  0  0  0  0  0  0  0  0
   -7.6003    1.8307    0.0000 C   0  0  0  0  0  0  0  0  0  0  0  0
   -8.1379    0.4303    0.0000 C   0  0  0  0  0  0  0  0  0  0  0  0
   -6.7375   -0.1072    0.0000 C   0  0  0  0  0  0  0  0  0  0  0  0
   -2.2458    1.6317    0.0000 C   0  0  0  0  0  0  0  0  0  0  0  0
   -3.6161    1.0216    0.0000 N   0  0  0  0  0  0  0  0  0  0  0  0
   -4.8297    1.9033    0.0000 C   0  0  0  0  0  0  0  0  0  0  0  0
    0.3943    1.2135    0.0000 C   0  0  0  0  0  0  0  0  0  0  0  0
    1.2760    0.0000    0.0000 N   0  0  0  0  0  0  0  0  0  0  0  0
    0.3943   -1.2135    0.0000 C   0  0  0  0  0  0  0  0  0  0  0  0
   -1.0323   -0.7500    0.0000 C   0  0  0  0  0  0  0  0  0  0  0  0
   -1.0323    0.7500    0.0000 N   0  0  0  0  0  0  0  0  0  0  0  0
    0.8578   -2.6401    0.0000 N   0  0  0  0  0  0  0  0  0  0  0  0
    2.2844   -3.1036    0.0000 C   0  0  0  0  0  0  0  0  0  0  0  0
    2.2844   -4.6036    0.0000 C   0  0  0  0  0  0  0  0  0  0  0  0
    0.8578   -5.0672    0.0000 C   0  0  0  0  0  0  0  0  0  0  0  0
   -0.0239   -3.8536    0.0000 C   0  0  0  0  0  0  0  0  0  0  0  0
    2.3250    2.9520    0.0000 C   0  0  0  0  0  0  0  0  0  0  0  0
    0.8578    2.6401    0.0000 N   0  0  0  0  0  0  0  0  0  0  0  0
   -0.1459    3.7548    0.0000 C   0  0  0  0  0  0  0  0  0  0  0  0
    0.3177    5.1814    0.0000 C   0  0  0  0  0  0  0  0  0  0  0  0
    0.7812    6.6080    0.0000 C   0  0  0  0  0  0  0  0  0  0  0  0
    0.3630    9.2481    0.0000 C   0  0  0  0  0  0  0  0  0  0  0  0
    1.2447    8.0346    0.0000 C   0  0  0  0  0  0  0  0  0  0  0  0
    2.6713    8.4981    0.0000 N   0  0  0  0  0  0  0  0  0  0  0  0
    2.6713    9.9981    0.0000 N   0  0  0  0  0  0  0  0  0  0  0  0
    1.2447   10.4616    0.0000 C   0  0  0  0  0  0  0  0  0  0  0  0
    0.7812   11.8882    0.0000 N   0  0  0  0  0  0  0  0  0  0  0  0
   -3.3870    7.9491    0.0000 C   0  0  0  0  0  0  0  0  0  0  0  0
   -1.8870    7.9491    0.0000 C   0  0  0  0  0  0  0  0  0  0  0  0
   -1.1370    6.6500    0.0000 O   0  0  0  0  0  0  0  0  0  0  0  0
   -1.1370    9.2481    0.0000 N   0  0  0  0  0  0  0  0  0  0  0  0
   -1.8870   10.5471    0.0000 C   0  0  0  0  0  0  0  0  0  0  0  0
  1  2  1  0
  2  3  1  0
  3  4  1  0
  4  1  1  0
  5  6  1  0
  6  7  1  0
  8  9  2  0
  9 10  1  0
 10 11  2  0
 11 12  1  0
 12  8  1  0
 13 14  1  0
 14 15  2  0
 15 16  1  0
 16 17  2  0
 17 13  1  0
 18 19  1  0
 19 20  1  0
 20 21  1  0
 21 22  3  0
 23 24  1  0
 24 25  2  0
 25 26  1  0
 26 27  1  0
 27 23  2  0
 29 30  1  0
 30 31  2  0
 30 32  1  0
 32 33  1  0
  1  7  1  0
  5 12  1  0
 10 13  1  0
  8 19  1  0
 22 24  1  0
 27 28  1  0
 23 32  1  0
M  END

