
     RDKit          2D

 42 46  0  0  0  0  0  0  0  0999 V2000
    7.3593    8.1427    0.0000 C   0  0  0  0  0  0  0  0  0  0  0  0
    6.0602    8.8927    0.0000 C   0  0  0  0  0  0  0  0  0  0  0  0
    4.7612    8.1427    0.0000 N   0  0  0  0  0  0  0  0  0  0  0  0
    4.7612    6.6427    0.0000 C   0  0  0  0  0  0  0  0  0  0  0  0
    6.0602    5.8927    0.0000 C   0  0  0  0  0  0  0  0  0  0  0  0
    2.1631    8.1427    0.0000 C   0  0  0  0  0  0  0  0  0  0  0  0
    3.4622    8.8927    0.0000 C   0  0  0  0  0  0  0  0  0  0  0  0
   -0.5062    8.2826    0.0000 C   0  0  0  0  0  0  0  0  0  0  0  0
   -1.5099    9.3974    0.0000 N   0  0  0  0  0  0  0  0  0  0  0  0
   -0.7599   10.6964    0.0000 C   0  0  0  0  0  0  0  0  0  0  0  0
    0.7073   10.3845    0.0000 C   0  0  0  0  0  0  0  0  0  0  0  0
    0.8641    8.8927    0.0000 N   0  0  0  0  0  0  0  0  0  0  0  0
   -3.4719   13.5938    0.0000 C   0  0  0  0  0  0  0  0  0  0  0  0
   -2.5902   14.8074    0.0000 C   0  0  0  0  0  0  0  0  0  0  0  0
   -1.0985   14.6506    0.0000 C   0  0  0  0  0  0  0  0  0  0  0  0
   -0.4883   13.2802    0.0000 C   0  0  0  0  0  0  0  0  0  0  0  0
   -1.3700   12.0667    0.0000 C   0  0  0  0  0  0  0  0  0  0  0  0
   -2.8618   12.2235    0.0000 C   0  0  0  0  0  0  0  0  0  0  0  0
   -7.6757   16.6480    0.0000 C   0  0  0  0  0  0  0  0  0  0  0  0
   -7.0656   15.2777    0.0000 C   0  0  0  0  0  0  0  0  0  0  0  0
   -5.5738   15.1209    0.0000 C   0  0  0  0  0  0  0  0  0  0  0  0
   -4.9637   13.7506    0.0000 N   0  0  0  0  0  0  0  0  0  0  0  0
   -1.4418    3.8810    0.0000 N   0  0  0  0  0  0  0  0  0  0  0  0
   -0.0152    4.3445    0.0000 C   0  0  0  0  0  0  0  0  0  0  0  0
    0.2966    5.8117    0.0000 C   0  0  0  0  0  0  0  0  0  0  0  0
   -0.8181    6.8154    0.0000 C   0  0  0  0  0  0  0  0  0  0  0  0
   -2.2447    6.3519    0.0000 C   0  0  0  0  0  0  0  0  0  0  0  0
   -2.5565    4.8847    0.0000 C   0  0  0  0  0  0  0  0  0  0  0  0
    1.5000    0.0000    0.0000 C   0  0  0  0  0  0  0  0  0  0  0  0
    0.7500   -1.2990    0.0000 N   0  0  0  0  0  0  0  0  0  0  0  0
   -0.7500   -1.2990    0.0000 C   0  0  0  0  0  0  0  0  0  0  0  0
   -1.5000    0.0000    0.0000 C   0  0  0  0  0  0  0  0  0  0  0  0
   -2.9672    0.3119    0.0000 N   0  0  0  0  0  0  0  0  0  0  0  0
   -3.1240    1.8037    0.0000 C   0  0  0  0  0  0  0  0  0  0  0  0
   -1.7537    2.4138    0.0000 N   0  0  0  0  0  0  0  0  0  0  0  0
   -0.7500    1.2990    0.0000 C   0  0  0  0  0  0  0  0  0  0  0  0
    0.7500    1.2990    0.0000 N   0  0  0  0  0  0  0  0  0  0  0  0
   -4.4231    4.0537    0.0000 O   0  0  0  0  0  0  0  0  0  0  0  0
   -4.4231    2.5537    0.0000 C   0  0  0  0  0  0  0  0  0  0  0  0
    3.7500   -1.2990    0.0000 N   0  0  0  0  0  0  0  0  0  0  0  0
    3.0000    0.0000    0.0000 C   0  0  0  0  0  0  0  0  0  0  0  0
    3.7500    1.2990    0.0000 O   0  0  0  0  0  0  0  0  0  0  0  0
  1  2  1  0
  2  3  1  0
  3  4  1  0
  4  5  1  0
  6  7  1  0
  8  9  2  0
  9 10  1  0
 10 11  2  0
 11 12  1  0
 12  8  1  0
 13 14  2  0
 14 15  1  0
 15 16  2  0
 16 17  1  0
 17 18  2  0
 18 13  1  0
 19 20  1  0
 20 21  1  0
 21 22  1  0
 23 24  1  0
 24 25  1  0
 25 26  1  0
 26 27  1  0
 27 28  1  0
 28 23  1  0
 29 30  2  0
 30 31  1  0
 31 32  2  0
 32 33  1  0
 33 34  2  0
 34 35  1  0
 35 36  1  0
 36 37  2  0
 37 29  1  0
 36 32  1  0
 38 39  1  0
 40 41  1  0
 41 42  2  0
  3  7  1  0
  6 12  1  0
 10 17  1  0
 13 22  1  0
  8 26  1  0
 23 35  1  0
 34 39  1  0
 29 41  1  0
M  END

