
     RDKit          2D

 35 39  0  0  0  0  0  0  0  0999 V2000
   -0.6050   -4.5533    0.0000 N   0  0  0  0  0  0  0  0  0  0  0  0
   -2.0316   -4.0898    0.0000 C   0  0  0  0  0  0  0  0  0  0  0  0
   -4.5729   -4.6300    0.0000 N   0  0  0  0  0  0  0  0  0  0  0  0
   -5.6876   -5.6337    0.0000 C   0  0  0  0  0  0  0  0  0  0  0  0
   -5.3758   -7.1009    0.0000 C   0  0  0  0  0  0  0  0  0  0  0  0
   -3.9492   -7.5644    0.0000 O   0  0  0  0  0  0  0  0  0  0  0  0
   -2.8345   -6.5607    0.0000 C   0  0  0  0  0  0  0  0  0  0  0  0
   -3.1463   -5.0935    0.0000 C   0  0  0  0  0  0  0  0  0  0  0  0
   -8.2289   -6.1738    0.0000 O   0  0  0  0  0  0  0  0  0  0  0  0
   -7.9171   -7.6411    0.0000 C   0  0  0  0  0  0  0  0  0  0  0  0
   -6.4905   -8.1046    0.0000 N   0  0  0  0  0  0  0  0  0  0  0  0
   -9.0318   -8.6448    0.0000 C   0  0  0  0  0  0  0  0  0  0  0  0
  -10.4584   -8.1812    0.0000 C   0  0  0  0  0  0  0  0  0  0  0  0
  -11.5731   -9.1849    0.0000 C   0  0  0  0  0  0  0  0  0  0  0  0
  -11.2612  -10.6521    0.0000 C   0  0  0  0  0  0  0  0  0  0  0  0
   -9.8346  -11.1157    0.0000 C   0  0  0  0  0  0  0  0  0  0  0  0
   -8.7199  -10.1120    0.0000 C   0  0  0  0  0  0  0  0  0  0  0  0
   -6.6232   -1.2320    0.0000 C   0  0  0  0  0  0  0  0  0  0  0  0
   -5.5085   -0.2283    0.0000 N   0  0  0  0  0  0  0  0  0  0  0  0
   -4.0819   -0.6918    0.0000 C   0  0  0  0  0  0  0  0  0  0  0  0
   -3.7701   -2.1590    0.0000 C   0  0  0  0  0  0  0  0  0  0  0  0
   -4.8848   -3.1627    0.0000 C   0  0  0  0  0  0  0  0  0  0  0  0
   -6.3114   -2.6992    0.0000 N   0  0  0  0  0  0  0  0  0  0  0  0
    1.5000    0.0000    0.0000 C   0  0  0  0  0  0  0  0  0  0  0  0
    0.7500   -1.2990    0.0000 C   0  0  0  0  0  0  0  0  0  0  0  0
   -0.7500   -1.2990    0.0000 C   0  0  0  0  0  0  0  0  0  0  0  0
   -1.5000    0.0000    0.0000 C   0  0  0  0  0  0  0  0  0  0  0  0
   -2.9672    0.3119    0.0000 C   0  0  0  0  0  0  0  0  0  0  0  0
   -3.1240    1.8037    0.0000 N   0  0  0  0  0  0  0  0  0  0  0  0
   -1.7537    2.4138    0.0000 N   0  0  0  0  0  0  0  0  0  0  0  0
   -0.7500    1.2990    0.0000 C   0  0  0  0  0  0  0  0  0  0  0  0
    0.7500    1.2990    0.0000 C   0  0  0  0  0  0  0  0  0  0  0  0
    3.0000    0.0000    0.0000 C   0  0  0  0  0  0  0  0  0  0  0  0
   -8.3617    0.6987    0.0000 C   0  0  0  0  0  0  0  0  0  0  0  0
   -8.0498   -0.7685    0.0000 N   0  0  0  0  0  0  0  0  0  0  0  0
  1  2  1  0
  3  4  1  0
  4  5  1  0
  5  6  1  0
  6  7  1  0
  7  8  1  0
  8  3  1  0
  9 10  2  0
 10 11  1  0
 12 13  1  0
 13 14  1  0
 14 15  1  0
 15 16  1  0
 16 17  1  0
 17 12  1  0
 18 19  2  0
 19 20  1  0
 20 21  2  0
 21 22  1  0
 22 23  2  0
 23 18  1  0
 24 25  2  0
 25 26  1  0
 26 27  2  0
 27 28  1  0
 28 29  2  0
 29 30  1  0
 30 31  1  0
 31 32  2  0
 32 24  1  0
 31 27  1  0
 34 35  1  0
  8  2  1  1
  5 11  1  1
 10 12  1  0
  3 22  1  0
 20 28  1  0
 24 33  1  0
 18 35  1  0
M  END

