
     RDKit          2D

 39 43  0  0  0  0  0  0  0  0999 V2000
   -9.8417    4.2890    0.0000 C   0  0  0  0  0  0  0  0  0  0  0  0
   -8.4713    3.6789    0.0000 N   0  0  0  0  0  0  0  0  0  0  0  0
   -8.3145    2.1872    0.0000 C   0  0  0  0  0  0  0  0  0  0  0  0
   -7.2578    4.5606    0.0000 C   0  0  0  0  0  0  0  0  0  0  0  0
   -5.8875    3.9505    0.0000 C   0  0  0  0  0  0  0  0  0  0  0  0
   -4.6740    4.8322    0.0000 O   0  0  0  0  0  0  0  0  0  0  0  0
   -2.0046    4.9721    0.0000 C   0  0  0  0  0  0  0  0  0  0  0  0
   -0.8899    3.9684    0.0000 C   0  0  0  0  0  0  0  0  0  0  0  0
   -1.5000    2.5981    0.0000 C   0  0  0  0  0  0  0  0  0  0  0  0
   -2.9918    2.7549    0.0000 N   0  0  0  0  0  0  0  0  0  0  0  0
   -3.3037    4.2221    0.0000 N   0  0  0  0  0  0  0  0  0  0  0  0
    1.5000    0.0000    0.0000 C   0  0  0  0  0  0  0  0  0  0  0  0
    0.7500   -1.2990    0.0000 C   0  0  0  0  0  0  0  0  0  0  0  0
   -0.7500   -1.2990    0.0000 C   0  0  0  0  0  0  0  0  0  0  0  0
   -1.5000    0.0000    0.0000 C   0  0  0  0  0  0  0  0  0  0  0  0
   -0.7500    1.2990    0.0000 C   0  0  0  0  0  0  0  0  0  0  0  0
    0.7500    1.2990    0.0000 C   0  0  0  0  0  0  0  0  0  0  0  0
   -3.0000    0.0000    0.0000 C   0  0  0  0  0  0  0  0  0  0  0  0
    9.7500   -3.8971    0.0000 F   0  0  0  0  0  0  0  0  0  0  0  0
    8.2500   -3.8971    0.0000 C   0  0  0  0  0  0  0  0  0  0  0  0
    7.5000   -2.5981    0.0000 C   0  0  0  0  0  0  0  0  0  0  0  0
    6.0000   -2.5981    0.0000 O   0  0  0  0  0  0  0  0  0  0  0  0
    5.2500   -1.2990    0.0000 C   0  0  0  0  0  0  0  0  0  0  0  0
    3.7500   -1.2990    0.0000 C   0  0  0  0  0  0  0  0  0  0  0  0
    3.0000    0.0000    0.0000 O   0  0  0  0  0  0  0  0  0  0  0  0
   -3.4718    8.2675    0.0000 N   0  0  0  0  0  0  0  0  0  0  0  0
   -2.1015    8.8776    0.0000 C   0  0  0  0  0  0  0  0  0  0  0  0
   -1.0978    7.7629    0.0000 C   0  0  0  0  0  0  0  0  0  0  0  0
   -0.3478    6.4639    0.0000 C   0  0  0  0  0  0  0  0  0  0  0  0
   -1.8478    6.4639    0.0000 C   0  0  0  0  0  0  0  0  0  0  0  0
   -3.3150    6.7757    0.0000 C   0  0  0  0  0  0  0  0  0  0  0  0
   -6.3949   10.8212    0.0000 C   0  0  0  0  0  0  0  0  0  0  0  0
   -7.1449    9.5221    0.0000 C   0  0  0  0  0  0  0  0  0  0  0  0
   -6.1412    8.4074    0.0000 N   0  0  0  0  0  0  0  0  0  0  0  0
   -4.7709    9.0175    0.0000 N   0  0  0  0  0  0  0  0  0  0  0  0
   -4.9277   10.5093    0.0000 C   0  0  0  0  0  0  0  0  0  0  0  0
   -3.8129   11.5130    0.0000 N   0  0  0  0  0  0  0  0  0  0  0  0
   -6.1233   13.4050    0.0000 C   0  0  0  0  0  0  0  0  0  0  0  0
   -7.0050   12.1915    0.0000 O   0  0  0  0  0  0  0  0  0  0  0  0
  1  2  1  0
  2  3  1  0
  2  4  1  0
  4  5  1  0
  5  6  1  0
  7  8  2  0
  8  9  1  0
  9 10  2  0
 10 11  1  0
 11  7  1  0
 12 13  2  0
 13 14  1  0
 14 15  2  0
 15 16  1  0
 16 17  2  0
 17 12  1  0
 19 20  1  0
 20 21  1  0
 21 22  1  0
 22 23  1  0
 23 24  1  0
 24 25  1  0
 26 27  1  0
 28 27  1  1
 28 29  1  0
 29 30  1  0
 30 31  1  0
 31 26  1  0
 30 28  1  0
 32 33  1  0
 33 34  2  0
 34 35  1  0
 35 36  1  0
 36 32  2  0
 38 39  1  0
  6 11  1  0
  9 16  1  0
 15 18  1  0
 12 25  1  0
 30  7  1  6
 26 35  1  0
 36 37  1  0
 32 39  1  0
M  END

