
     RDKit          2D

 37 42  0  0  0  0  0  0  0  0999 V2000
   -1.4306   -9.5404    0.0000 N   0  0  0  0  0  0  0  0  0  0  0  0
   -2.2254  -10.8125    0.0000 C   0  0  0  0  0  0  0  0  0  0  0  0
   -1.5212  -12.1369    0.0000 C   0  0  0  0  0  0  0  0  0  0  0  0
   -0.0221  -12.1892    0.0000 O   0  0  0  0  0  0  0  0  0  0  0  0
    0.7727  -10.9172    0.0000 C   0  0  0  0  0  0  0  0  0  0  0  0
    0.0685   -9.5927    0.0000 C   0  0  0  0  0  0  0  0  0  0  0  0
   -3.8806   -6.5300    0.0000 C   0  0  0  0  0  0  0  0  0  0  0  0
   -2.5562   -5.8258    0.0000 N   0  0  0  0  0  0  0  0  0  0  0  0
   -1.4772   -6.8678    0.0000 C   0  0  0  0  0  0  0  0  0  0  0  0
   -2.1348   -8.2160    0.0000 N   0  0  0  0  0  0  0  0  0  0  0  0
   -3.6202   -8.0072    0.0000 N   0  0  0  0  0  0  0  0  0  0  0  0
    0.0000   -6.6073    0.0000 C   0  0  0  0  0  0  0  0  0  0  0  0
    0.5130   -8.0168    0.0000 C   0  0  0  0  0  0  0  0  0  0  0  0
    1.4772   -6.8678    0.0000 C   0  0  0  0  0  0  0  0  0  0  0  0
   -1.5000   -5.1073    0.0000 O   0  0  0  0  0  0  0  0  0  0  0  0
   -0.0000   -5.1073    0.0000 C   0  0  0  0  0  0  0  0  0  0  0  0
   -0.0000   -3.6073    0.0000 C   0  0  0  0  0  0  0  0  0  0  0  0
    1.2135   -2.7256    0.0000 C   0  0  0  0  0  0  0  0  0  0  0  0
    0.7500   -1.2990    0.0000 C   0  0  0  0  0  0  0  0  0  0  0  0
    1.5000    0.0000    0.0000 C   0  0  0  0  0  0  0  0  0  0  0  0
    0.7500    1.2990    0.0000 C   0  0  0  0  0  0  0  0  0  0  0  0
   -0.7500    1.2990    0.0000 C   0  0  0  0  0  0  0  0  0  0  0  0
   -1.5000    0.0000    0.0000 C   0  0  0  0  0  0  0  0  0  0  0  0
   -0.7500   -1.2990    0.0000 N   0  0  0  0  0  0  0  0  0  0  0  0
   -1.2135   -2.7256    0.0000 N   0  0  0  0  0  0  0  0  0  0  0  0
    1.5000   -5.1073    0.0000 F   0  0  0  0  0  0  0  0  0  0  0  0
   -7.9252   -4.5573    0.0000 C   0  0  0  0  0  0  0  0  0  0  0  0
   -6.6817   -3.7185    0.0000 C   0  0  0  0  0  0  0  0  0  0  0  0
   -5.3335   -4.3761    0.0000 C   0  0  0  0  0  0  0  0  0  0  0  0
   -5.2288   -5.8724    0.0000 C   0  0  0  0  0  0  0  0  0  0  0  0
   -6.4724   -6.7112    0.0000 C   0  0  0  0  0  0  0  0  0  0  0  0
   -7.8206   -6.0537    0.0000 N   0  0  0  0  0  0  0  0  0  0  0  0
   -2.8464   -2.6985    0.0000 F   0  0  0  0  0  0  0  0  0  0  0  0
   -4.0899   -3.5373    0.0000 C   0  0  0  0  0  0  0  0  0  0  0  0
   -4.9287   -2.2937    0.0000 F   0  0  0  0  0  0  0  0  0  0  0  0
   -3.2511   -4.7809    0.0000 F   0  0  0  0  0  0  0  0  0  0  0  0
   -9.2734   -3.8998    0.0000 N   0  0  0  0  0  0  0  0  0  0  0  0
  1  2  1  0
  2  3  1  0
  3  4  1  0
  4  5  1  0
  5  6  1  0
  6  1  1  0
  7  8  1  0
  8  9  2  0
  9 10  1  0
 10 11  1  0
 11  7  2  0
 12 13  1  0
 13 14  1  0
 14 12  1  0
 15 16  1  0
 17 18  1  0
 18 19  2  0
 19 20  1  0
 20 21  2  0
 21 22  1  0
 22 23  2  0
 23 24  1  0
 24 25  1  0
 25 17  2  0
 24 19  1  0
 27 28  2  0
 28 29  1  0
 29 30  2  0
 30 31  1  0
 31 32  2  0
 32 27  1  0
 33 34  1  0
 34 35  1  0
 34 36  1  0
  1 10  1  0
  9 12  1  0
 12 16  1  0
 16 17  1  0
 16 26  1  0
  7 30  1  0
 29 34  1  0
 27 37  1  0
M  ISO  1  26  18
M  END

