
     RDKit          2D

 42 46  0  0  0  0  0  0  0  0999 V2000
    4.3378    1.2050    0.0000 C   0  0  0  0  0  0  0  0  0  0  0  0
    3.5115    2.4569    0.0000 N   0  0  0  0  0  0  0  0  0  0  0  0
    4.0385    3.8613    0.0000 C   0  0  0  0  0  0  0  0  0  0  0  0
    2.8658    4.7965    0.0000 C   0  0  0  0  0  0  0  0  0  0  0  0
    2.9331    6.2950    0.0000 C   0  0  0  0  0  0  0  0  0  0  0  0
    4.2645    6.9859    0.0000 C   0  0  0  0  0  0  0  0  0  0  0  0
    4.3318    8.4844    0.0000 C   0  0  0  0  0  0  0  0  0  0  0  0
    5.6631    9.1754    0.0000 F   0  0  0  0  0  0  0  0  0  0  0  0
    3.0677    9.2920    0.0000 C   0  0  0  0  0  0  0  0  0  0  0  0
    1.7363    8.6010    0.0000 C   0  0  0  0  0  0  0  0  0  0  0  0
    1.6690    7.1025    0.0000 C   0  0  0  0  0  0  0  0  0  0  0  0
    0.3376    6.4115    0.0000 C   0  0  0  0  0  0  0  0  0  0  0  0
   -0.9938    5.7206    0.0000 F   0  0  0  0  0  0  0  0  0  0  0  0
   -0.3533    7.7429    0.0000 F   0  0  0  0  0  0  0  0  0  0  0  0
    1.0286    5.0802    0.0000 F   0  0  0  0  0  0  0  0  0  0  0  0
    1.6139    3.9701    0.0000 N   0  0  0  0  0  0  0  0  0  0  0  0
    2.0130    2.5242    0.0000 C   0  0  0  0  0  0  0  0  0  0  0  0
    1.0777    1.3515    0.0000 N   0  0  0  0  0  0  0  0  0  0  0  0
    1.7286    0.0000    0.0000 C   0  0  0  0  0  0  0  0  0  0  0  0
    1.0777   -1.3515    0.0000 C   0  0  0  0  0  0  0  0  0  0  0  0
   -0.3846   -1.6852    0.0000 C   0  0  0  0  0  0  0  0  0  0  0  0
   -1.5574   -0.7500    0.0000 N   0  0  0  0  0  0  0  0  0  0  0  0
   -2.9088   -1.4008    0.0000 C   0  0  0  0  0  0  0  0  0  0  0  0
   -4.1482   -0.5558    0.0000 N   0  0  0  0  0  0  0  0  0  0  0  0
   -5.4997   -1.2067    0.0000 C   0  0  0  0  0  0  0  0  0  0  0  0
   -5.6118   -2.7025    0.0000 N   0  0  0  0  0  0  0  0  0  0  0  0
   -4.3724   -3.5475    0.0000 C   0  0  0  0  0  0  0  0  0  0  0  0
   -4.4845   -5.0433    0.0000 C   0  0  0  0  0  0  0  0  0  0  0  0
   -5.8359   -5.6941    0.0000 C   0  0  0  0  0  0  0  0  0  0  0  0
   -7.1874   -6.3449    0.0000 N   0  0  0  0  0  0  0  0  0  0  0  0
   -3.0209   -2.8966    0.0000 C   0  0  0  0  0  0  0  0  0  0  0  0
   -1.7816   -3.7416    0.0000 C   0  0  0  0  0  0  0  0  0  0  0  0
   -1.8937   -5.2374    0.0000 C   0  0  0  0  0  0  0  0  0  0  0  0
   -0.6543   -6.0824    0.0000 C   0  0  0  0  0  0  0  0  0  0  0  0
    0.6971   -5.4316    0.0000 C   0  0  0  0  0  0  0  0  0  0  0  0
    1.9365   -6.2766    0.0000 C   0  0  0  0  0  0  0  0  0  0  0  0
    1.8244   -7.7724    0.0000 C   0  0  0  0  0  0  0  0  0  0  0  0
    3.0638   -8.6173    0.0000 O   0  0  0  0  0  0  0  0  0  0  0  0
    0.8092   -3.9358    0.0000 N   0  0  0  0  0  0  0  0  0  0  0  0
   -0.4301   -3.0908    0.0000 C   0  0  0  0  0  0  0  0  0  0  0  0
   -1.5574    0.7500    0.0000 C   0  0  0  0  0  0  0  0  0  0  0  0
   -0.3846    1.6852    0.0000 C   0  0  0  0  0  0  0  0  0  0  0  0
  1  2  1  0
  2  3  1  0
  3  4  2  0
  4  5  1  0
  5  6  2  0
  6  7  1  0
  7  8  1  0
  7  9  2  0
  9 10  1  0
 10 11  2  0
 11 12  1  0
 12 13  1  0
 12 14  1  0
 12 15  1  0
  4 16  1  0
 16 17  2  0
 17 18  1  0
 18 19  1  0
 19 20  1  0
 20 21  1  0
 21 22  1  0
 22 23  1  0
 23 24  2  0
 24 25  1  0
 25 26  2  0
 26 27  1  0
 27 28  1  0
 28 29  1  0
 29 30  3  0
 27 31  2  0
 31 32  1  0
 32 33  2  0
 33 34  1  0
 34 35  2  0
 35 36  1  0
 36 37  1  0
 37 38  1  0
 35 39  1  0
 39 40  2  0
 22 41  1  0
 41 42  1  0
 17  2  1  0
 42 18  1  0
 11  5  1  0
 31 23  1  0
 40 32  1  0
M  END

