
     RDKit          2D

 44 47  0  0  0  0  0  0  0  0999 V2000
   -7.6056    1.9033    0.0000 F   0  0  0  0  0  0  0  0  0  0  0  0
  -11.3229    0.9161    0.0000 N   0  0  0  0  0  0  0  0  0  0  0  0
  -10.3192   -0.1986    0.0000 C   0  0  0  0  0  0  0  0  0  0  0  0
   -8.9488    0.4115    0.0000 C   0  0  0  0  0  0  0  0  0  0  0  0
   -9.1056    1.9033    0.0000 C   0  0  0  0  0  0  0  0  0  0  0  0
  -10.5729    2.2151    0.0000 C   0  0  0  0  0  0  0  0  0  0  0  0
  -11.5327    3.6666    0.0000 C   0  0  0  0  0  0  0  0  0  0  0  0
  -10.1624    4.2767    0.0000 C   0  0  0  0  0  0  0  0  0  0  0  0
   -8.9488    3.3950    0.0000 C   0  0  0  0  0  0  0  0  0  0  0  0
   -7.5785    4.0051    0.0000 C   0  0  0  0  0  0  0  0  0  0  0  0
   -6.5218    1.6317    0.0000 C   0  0  0  0  0  0  0  0  0  0  0  0
   -6.3650    3.1235    0.0000 C   0  0  0  0  0  0  0  0  0  0  0  0
   -5.3083   -0.7500    0.0000 C   0  0  0  0  0  0  0  0  0  0  0  0
   -3.8817   -1.2135    0.0000 N   0  0  0  0  0  0  0  0  0  0  0  0
   -3.0000    0.0000    0.0000 C   0  0  0  0  0  0  0  0  0  0  0  0
   -3.8817    1.2135    0.0000 C   0  0  0  0  0  0  0  0  0  0  0  0
   -5.3083    0.7500    0.0000 N   0  0  0  0  0  0  0  0  0  0  0  0
    1.5000    0.0000    0.0000 C   0  0  0  0  0  0  0  0  0  0  0  0
    0.7500   -1.2990    0.0000 C   0  0  0  0  0  0  0  0  0  0  0  0
   -0.7500   -1.2990    0.0000 C   0  0  0  0  0  0  0  0  0  0  0  0
   -1.5000    0.0000    0.0000 C   0  0  0  0  0  0  0  0  0  0  0  0
   -0.7500    1.2990    0.0000 C   0  0  0  0  0  0  0  0  0  0  0  0
    0.7500    1.2990    0.0000 C   0  0  0  0  0  0  0  0  0  0  0  0
    4.5000    0.0000    0.0000 F   0  0  0  0  0  0  0  0  0  0  0  0
    3.0000    0.0000    0.0000 C   0  0  0  0  0  0  0  0  0  0  0  0
    3.0000   -1.5000    0.0000 F   0  0  0  0  0  0  0  0  0  0  0  0
    3.0000    1.5000    0.0000 F   0  0  0  0  0  0  0  0  0  0  0  0
   -6.5218   -1.6317    0.0000 F   0  0  0  0  0  0  0  0  0  0  0  0
  -10.5919   12.6173    0.0000 C   0  0  0  0  0  0  0  0  0  0  0  0
  -10.7487   11.1255    0.0000 C   0  0  0  0  0  0  0  0  0  0  0  0
   -9.5352   10.2438    0.0000 C   0  0  0  0  0  0  0  0  0  0  0  0
   -9.6920    8.7521    0.0000 C   0  0  0  0  0  0  0  0  0  0  0  0
   -8.4785    7.8704    0.0000 C   0  0  0  0  0  0  0  0  0  0  0  0
   -8.6353    6.3786    0.0000 C   0  0  0  0  0  0  0  0  0  0  0  0
   -7.4217    5.4969    0.0000 C   0  0  0  0  0  0  0  0  0  0  0  0
  -13.1758   12.8889    0.0000 C   0  0  0  0  0  0  0  0  0  0  0  0
  -14.3893   13.7706    0.0000 C   0  0  0  0  0  0  0  0  0  0  0  0
  -14.2325   15.2623    0.0000 N   0  0  0  0  0  0  0  0  0  0  0  0
  -12.8622   15.8724    0.0000 C   0  0  0  0  0  0  0  0  0  0  0  0
  -11.6487   14.9908    0.0000 N   0  0  0  0  0  0  0  0  0  0  0  0
  -11.8055   13.4990    0.0000 C   0  0  0  0  0  0  0  0  0  0  0  0
  -15.7596   13.1604    0.0000 I   0  0  0  0  0  0  0  0  0  0  0  0
  -14.7029   10.7870    0.0000 C   0  0  0  0  0  0  0  0  0  0  0  0
  -13.3326   11.3971    0.0000 C   0  0  0  0  0  0  0  0  0  0  0  0
  2  3  1  0
  3  4  1  0
  4  5  1  0
  5  6  1  0
  6  2  1  0
  7  8  1  0
  8  9  1  0
  9 10  2  0
 11 12  1  0
 13 14  2  0
 14 15  1  0
 15 16  2  0
 16 17  1  0
 17 13  1  0
 18 19  2  0
 19 20  1  0
 20 21  2  0
 21 22  1  0
 22 23  2  0
 23 18  1  0
 24 25  1  0
 25 26  1  0
 25 27  1  0
 29 30  1  0
 30 31  1  0
 31 32  1  0
 32 33  1  0
 33 34  1  0
 34 35  1  0
 36 37  2  0
 37 38  1  0
 38 39  2  0
 39 40  1  0
 40 41  2  0
 41 36  1  0
 43 44  1  0
  1  5  1  0
  5  9  1  0
 10 12  1  0
 11 17  1  0
 15 21  1  0
 18 25  1  0
 13 28  1  0
 10 35  1  0
 29 41  1  0
 37 42  1  0
 36 44  1  0
M  END

