
     RDKit          2D

 43 47  0  0  0  0  0  0  0  0999 V2000
    0.7500   -1.2990    0.0000 N   0  0  0  0  0  0  0  0  0  0  0  0
    1.5000    0.0000    0.0000 C   0  0  0  0  0  0  0  0  0  0  0  0
    0.7500    1.2990    0.0000 C   0  0  0  0  0  0  0  0  0  0  0  0
   -0.7500    1.2990    0.0000 O   0  0  0  0  0  0  0  0  0  0  0  0
   -1.5000    0.0000    0.0000 C   0  0  0  0  0  0  0  0  0  0  0  0
   -0.7500   -1.2990    0.0000 C   0  0  0  0  0  0  0  0  0  0  0  0
    0.7500   -3.8971    0.0000 N   0  0  0  0  0  0  0  0  0  0  0  0
    1.5000   -2.5981    0.0000 C   0  0  0  0  0  0  0  0  0  0  0  0
    2.9918   -5.3529    0.0000 C   0  0  0  0  0  0  0  0  0  0  0  0
    3.3037   -6.8202    0.0000 N   0  0  0  0  0  0  0  0  0  0  0  0
    2.0046   -7.5702    0.0000 C   0  0  0  0  0  0  0  0  0  0  0  0
    0.8899   -6.5665    0.0000 C   0  0  0  0  0  0  0  0  0  0  0  0
    1.5000   -5.1962    0.0000 N   0  0  0  0  0  0  0  0  0  0  0  0
    0.8606  -11.2792    0.0000 C   0  0  0  0  0  0  0  0  0  0  0  0
    2.3524  -11.4360    0.0000 C   0  0  0  0  0  0  0  0  0  0  0  0
    2.9625  -10.0656    0.0000 N   0  0  0  0  0  0  0  0  0  0  0  0
    1.8478   -9.0619    0.0000 C   0  0  0  0  0  0  0  0  0  0  0  0
    0.5488   -9.8119    0.0000 N   0  0  0  0  0  0  0  0  0  0  0  0
   11.8425  -12.1623    0.0000 F   0  0  0  0  0  0  0  0  0  0  0  0
   10.3753  -12.4742    0.0000 C   0  0  0  0  0  0  0  0  0  0  0  0
    9.3716  -11.3595    0.0000 C   0  0  0  0  0  0  0  0  0  0  0  0
    7.9044  -11.6713    0.0000 O   0  0  0  0  0  0  0  0  0  0  0  0
    6.9007  -10.5566    0.0000 C   0  0  0  0  0  0  0  0  0  0  0  0
    5.4335  -10.8685    0.0000 C   0  0  0  0  0  0  0  0  0  0  0  0
    4.4298   -9.7538    0.0000 O   0  0  0  0  0  0  0  0  0  0  0  0
   -0.1430  -12.3939    0.0000 F   0  0  0  0  0  0  0  0  0  0  0  0
    6.0029   -2.0088    0.0000 N   0  0  0  0  0  0  0  0  0  0  0  0
    4.5356   -1.6969    0.0000 C   0  0  0  0  0  0  0  0  0  0  0  0
    3.5320   -2.8116    0.0000 C   0  0  0  0  0  0  0  0  0  0  0  0
    3.9955   -4.2382    0.0000 C   0  0  0  0  0  0  0  0  0  0  0  0
    5.4627   -4.5501    0.0000 C   0  0  0  0  0  0  0  0  0  0  0  0
    6.4664   -3.4354    0.0000 C   0  0  0  0  0  0  0  0  0  0  0  0
    6.5430    0.5325    0.0000 C   0  0  0  0  0  0  0  0  0  0  0  0
    7.5467    1.6472    0.0000 C   0  0  0  0  0  0  0  0  0  0  0  0
    9.0140    1.3354    0.0000 N   0  0  0  0  0  0  0  0  0  0  0  0
    9.4775   -0.0912    0.0000 C   0  0  0  0  0  0  0  0  0  0  0  0
    8.4738   -1.2059    0.0000 N   0  0  0  0  0  0  0  0  0  0  0  0
    7.0066   -0.8941    0.0000 C   0  0  0  0  0  0  0  0  0  0  0  0
    9.0906    5.3032    0.0000 N   0  0  0  0  0  0  0  0  0  0  0  0
    8.0869    4.1885    0.0000 C   0  0  0  0  0  0  0  0  0  0  0  0
    7.0832    3.0738    0.0000 C   0  0  0  0  0  0  0  0  0  0  0  0
    4.6123    2.2710    0.0000 C   0  0  0  0  0  0  0  0  0  0  0  0
    5.0758    0.8444    0.0000 C   0  0  0  0  0  0  0  0  0  0  0  0
  1  2  1  0
  2  3  1  0
  3  4  1  0
  4  5  1  0
  5  6  1  0
  6  1  1  0
  7  8  1  0
  9 10  2  0
 10 11  1  0
 11 12  2  0
 12 13  1  0
 13  9  1  0
 14 15  2  0
 15 16  1  0
 16 17  1  0
 17 18  2  0
 18 14  1  0
 19 20  1  0
 20 21  1  0
 21 22  1  0
 22 23  1  0
 23 24  1  0
 24 25  1  0
 27 28  1  0
 28 29  1  0
 29 30  1  0
 30 31  1  0
 31 32  1  0
 32 27  1  0
 33 34  2  0
 34 35  1  0
 35 36  2  0
 36 37  1  0
 37 38  2  0
 38 33  1  0
 39 40  3  0
 40 41  1  0
 42 43  1  0
  1  8  1  0
  7 13  1  0
 11 17  1  0
 16 25  1  0
 14 26  1  0
  9 30  1  0
 27 38  1  0
 34 41  1  0
 33 43  1  0
M  END

