
     RDKit          2D

 27 30  0  0  0  0  0  0  0  0999 V2000
   -0.0967   -5.1517    0.0000 F   0  0  0  0  0  0  0  0  0  0  0  0
    1.2760    0.0000    0.0000 N   0  0  0  0  0  0  0  0  0  0  0  0
    0.3943    1.2135    0.0000 C   0  0  0  0  0  0  0  0  0  0  0  0
   -1.0323    0.7500    0.0000 C   0  0  0  0  0  0  0  0  0  0  0  0
   -1.0323   -0.7500    0.0000 C   0  0  0  0  0  0  0  0  0  0  0  0
   -2.1470   -1.7537    0.0000 C   0  0  0  0  0  0  0  0  0  0  0  0
   -1.8351   -3.2209    0.0000 C   0  0  0  0  0  0  0  0  0  0  0  0
   -0.4086   -3.6844    0.0000 C   0  0  0  0  0  0  0  0  0  0  0  0
    0.7062   -2.6807    0.0000 C   0  0  0  0  0  0  0  0  0  0  0  0
    0.3943   -1.2135    0.0000 C   0  0  0  0  0  0  0  0  0  0  0  0
   -4.6883   -2.2939    0.0000 C   0  0  0  0  0  0  0  0  0  0  0  0
   -3.5736   -1.2902    0.0000 C   0  0  0  0  0  0  0  0  0  0  0  0
   -3.8855    0.1771    0.0000 O   0  0  0  0  0  0  0  0  0  0  0  0
   -8.5419   -1.8303    0.0000 C   0  0  0  0  0  0  0  0  0  0  0  0
   -8.0784   -0.4038    0.0000 C   0  0  0  0  0  0  0  0  0  0  0  0
   -6.5784   -0.4038    0.0000 N   0  0  0  0  0  0  0  0  0  0  0  0
   -6.1149   -1.8303    0.0000 C   0  0  0  0  0  0  0  0  0  0  0  0
   -7.3284   -2.7120    0.0000 S   0  0  0  0  0  0  0  0  0  0  0  0
   -9.9685   -2.2939    0.0000 N   0  0  0  0  0  0  0  0  0  0  0  0
  -11.0832   -1.2902    0.0000 C   0  0  0  0  0  0  0  0  0  0  0  0
  -12.5098   -1.7537    0.0000 C   0  0  0  0  0  0  0  0  0  0  0  0
  -12.8217   -3.2209    0.0000 O   0  0  0  0  0  0  0  0  0  0  0  0
  -11.7070   -4.2246    0.0000 C   0  0  0  0  0  0  0  0  0  0  0  0
  -10.2804   -3.7611    0.0000 C   0  0  0  0  0  0  0  0  0  0  0  0
    3.5260    1.2990    0.0000 N   0  0  0  0  0  0  0  0  0  0  0  0
    2.7760    0.0000    0.0000 C   0  0  0  0  0  0  0  0  0  0  0  0
    3.5260   -1.2990    0.0000 O   0  0  0  0  0  0  0  0  0  0  0  0
  2  3  1  0
  3  4  1  0
  4  5  1  0
  5  6  2  0
  6  7  1  0
  7  8  2  0
  8  9  1  0
  9 10  2  0
 10  2  1  0
 10  5  1  0
 11 12  1  0
 12 13  2  0
 14 15  2  0
 15 16  1  0
 16 17  2  0
 17 18  1  0
 18 14  1  0
 19 20  1  0
 20 21  1  0
 21 22  1  0
 22 23  1  0
 23 24  1  0
 24 19  1  0
 25 26  1  0
 26 27  2  0
  1  8  1  0
  6 12  1  0
 11 17  1  0
 14 19  1  0
  2 26  1  0
M  ISO  1   1  18
M  END

