
     RDKit          2D

 38 42  0  0  0  0  0  0  0  0999 V2000
   -5.8875    3.9505    0.0000 C   0  0  0  0  0  0  0  0  0  0  0  0
   -7.3690    4.1852    0.0000 C   0  0  0  0  0  0  0  0  0  0  0  0
   -7.6037    2.7036    0.0000 N   0  0  0  0  0  0  0  0  0  0  0  0
   -6.1221    2.4690    0.0000 C   0  0  0  0  0  0  0  0  0  0  0  0
   -4.6740    4.8322    0.0000 C   0  0  0  0  0  0  0  0  0  0  0  0
   -2.0046    4.9721    0.0000 C   0  0  0  0  0  0  0  0  0  0  0  0
   -0.8899    3.9684    0.0000 N   0  0  0  0  0  0  0  0  0  0  0  0
   -1.5000    2.5981    0.0000 C   0  0  0  0  0  0  0  0  0  0  0  0
   -2.9918    2.7549    0.0000 C   0  0  0  0  0  0  0  0  0  0  0  0
   -3.3037    4.2221    0.0000 N   0  0  0  0  0  0  0  0  0  0  0  0
    1.5000    0.0000    0.0000 C   0  0  0  0  0  0  0  0  0  0  0  0
    0.7500   -1.2990    0.0000 C   0  0  0  0  0  0  0  0  0  0  0  0
   -0.7500   -1.2990    0.0000 C   0  0  0  0  0  0  0  0  0  0  0  0
   -1.5000    0.0000    0.0000 C   0  0  0  0  0  0  0  0  0  0  0  0
   -0.7500    1.2990    0.0000 C   0  0  0  0  0  0  0  0  0  0  0  0
    0.7500    1.2990    0.0000 C   0  0  0  0  0  0  0  0  0  0  0  0
   -3.0000    0.0000    0.0000 O   0  0  0  0  0  0  0  0  0  0  0  0
   -3.7500   -1.2990    0.0000 C   0  0  0  0  0  0  0  0  0  0  0  0
   -2.4510   -2.0490    0.0000 F   0  0  0  0  0  0  0  0  0  0  0  0
   -5.0490   -0.5490    0.0000 F   0  0  0  0  0  0  0  0  0  0  0  0
   -4.5000   -2.5981    0.0000 C   0  0  0  0  0  0  0  0  0  0  0  0
   -3.7500   -3.8971    0.0000 F   0  0  0  0  0  0  0  0  0  0  0  0
   -6.0000   -2.5981    0.0000 F   0  0  0  0  0  0  0  0  0  0  0  0
    3.0000    0.0000    0.0000 F   0  0  0  0  0  0  0  0  0  0  0  0
   -1.5342    9.4474    0.0000 N   0  0  0  0  0  0  0  0  0  0  0  0
   -2.9046    8.8373    0.0000 C   0  0  0  0  0  0  0  0  0  0  0  0
   -3.0613    7.3456    0.0000 C   0  0  0  0  0  0  0  0  0  0  0  0
   -1.8478    6.4639    0.0000 C   0  0  0  0  0  0  0  0  0  0  0  0
   -0.4775    7.0740    0.0000 C   0  0  0  0  0  0  0  0  0  0  0  0
   -0.3207    8.5658    0.0000 C   0  0  0  0  0  0  0  0  0  0  0  0
   -0.0784   11.6892    0.0000 N   0  0  0  0  0  0  0  0  0  0  0  0
   -0.3903   13.1564    0.0000 N   0  0  0  0  0  0  0  0  0  0  0  0
   -1.8821   13.3132    0.0000 C   0  0  0  0  0  0  0  0  0  0  0  0
   -2.4922   11.9429    0.0000 N   0  0  0  0  0  0  0  0  0  0  0  0
   -1.3774   10.9392    0.0000 C   0  0  0  0  0  0  0  0  0  0  0  0
   -2.6321   14.6123    0.0000 N   0  0  0  0  0  0  0  0  0  0  0  0
    1.2919   11.0791    0.0000 C   0  0  0  0  0  0  0  0  0  0  0  0
    2.6622   10.4690    0.0000 N   0  0  0  0  0  0  0  0  0  0  0  0
  1  2  1  0
  2  3  1  0
  3  4  1  0
  4  1  1  0
  6  7  2  0
  7  8  1  0
  8  9  2  0
  9 10  1  0
 10  6  1  0
 11 12  2  0
 12 13  1  0
 13 14  2  0
 14 15  1  0
 15 16  2  0
 16 11  1  0
 17 18  1  0
 18 19  1  0
 18 20  1  0
 18 21  1  0
 21 22  1  0
 21 23  1  0
 25 26  1  0
 26 27  1  0
 27 28  1  0
 28 29  1  0
 29 30  1  0
 30 25  1  0
 31 32  1  0
 32 33  2  0
 33 34  1  0
 34 35  2  0
 35 31  1  0
 37 38  3  0
  1  5  1  0
  5 10  1  0
  8 15  1  0
 14 17  1  0
 11 24  1  0
  6 28  1  0
 25 35  1  0
 33 36  1  0
 31 37  1  0
M  ISO  1  24  18
M  END

