
     RDKit          2D

 44 49  0  0  0  0  0  0  0  0999 V2000
    1.0777    1.3515    0.0000 N   0  0  0  0  0  0  0  0  0  0  0  0
    1.7286    0.0000    0.0000 C   0  0  0  0  0  0  0  0  0  0  0  0
    1.0777   -1.3515    0.0000 C   0  0  0  0  0  0  0  0  0  0  0  0
   -0.3846   -1.6852    0.0000 C   0  0  0  0  0  0  0  0  0  0  0  0
   -1.5574   -0.7500    0.0000 O   0  0  0  0  0  0  0  0  0  0  0  0
   -1.5574    0.7500    0.0000 C   0  0  0  0  0  0  0  0  0  0  0  0
   -0.3846    1.6852    0.0000 C   0  0  0  0  0  0  0  0  0  0  0  0
    3.4962    2.3006    0.0000 C   0  0  0  0  0  0  0  0  0  0  0  0
    2.0130    2.5242    0.0000 C   0  0  0  0  0  0  0  0  0  0  0  0
    5.9147    3.2498    0.0000 C   0  0  0  0  0  0  0  0  0  0  0  0
    6.8499    4.4226    0.0000 C   0  0  0  0  0  0  0  0  0  0  0  0
    6.3019    5.8189    0.0000 C   0  0  0  0  0  0  0  0  0  0  0  0
    4.8187    6.0424    0.0000 C   0  0  0  0  0  0  0  0  0  0  0  0
    3.8835    4.8697    0.0000 C   0  0  0  0  0  0  0  0  0  0  0  0
    4.4315    3.4734    0.0000 C   0  0  0  0  0  0  0  0  0  0  0  0
    9.1076    9.3371    0.0000 C   0  0  0  0  0  0  0  0  0  0  0  0
    9.6556    7.9408    0.0000 C   0  0  0  0  0  0  0  0  0  0  0  0
    8.7204    6.7681    0.0000 C   0  0  0  0  0  0  0  0  0  0  0  0
    7.2372    6.9916    0.0000 C   0  0  0  0  0  0  0  0  0  0  0  0
    6.6892    8.3879    0.0000 C   0  0  0  0  0  0  0  0  0  0  0  0
    7.6244    9.5607    0.0000 C   0  0  0  0  0  0  0  0  0  0  0  0
   17.2983   13.3574    0.0000 F   0  0  0  0  0  0  0  0  0  0  0  0
   16.3631   12.1847    0.0000 C   0  0  0  0  0  0  0  0  0  0  0  0
   14.8798   12.4082    0.0000 C   0  0  0  0  0  0  0  0  0  0  0  0
   13.9446   11.2355    0.0000 O   0  0  0  0  0  0  0  0  0  0  0  0
   12.4614   11.4591    0.0000 C   0  0  0  0  0  0  0  0  0  0  0  0
   11.5261   10.2863    0.0000 C   0  0  0  0  0  0  0  0  0  0  0  0
   10.0429   10.5099    0.0000 O   0  0  0  0  0  0  0  0  0  0  0  0
    8.7350    1.0007    0.0000 N   0  0  0  0  0  0  0  0  0  0  0  0
    7.7998   -0.1720    0.0000 C   0  0  0  0  0  0  0  0  0  0  0  0
    6.3954    0.3550    0.0000 C   0  0  0  0  0  0  0  0  0  0  0  0
    5.1313    1.1625    0.0000 C   0  0  0  0  0  0  0  0  0  0  0  0
    6.4627    1.8535    0.0000 C   0  0  0  0  0  0  0  0  0  0  0  0
    7.9087    2.2526    0.0000 C   0  0  0  0  0  0  0  0  0  0  0  0
   11.0410    2.1975    0.0000 C   0  0  0  0  0  0  0  0  0  0  0  0
   12.5395    2.1302    0.0000 C   0  0  0  0  0  0  0  0  0  0  0  0
   13.2305    0.7988    0.0000 N   0  0  0  0  0  0  0  0  0  0  0  0
   12.4230   -0.4653    0.0000 C   0  0  0  0  0  0  0  0  0  0  0  0
   10.9245   -0.3980    0.0000 N   0  0  0  0  0  0  0  0  0  0  0  0
   10.2335    0.9334    0.0000 C   0  0  0  0  0  0  0  0  0  0  0  0
   14.1546    4.6584    0.0000 C   0  0  0  0  0  0  0  0  0  0  0  0
   13.3470    3.3943    0.0000 C   0  0  0  0  0  0  0  0  0  0  0  0
   11.1576    4.7930    0.0000 C   0  0  0  0  0  0  0  0  0  0  0  0
   10.3501    3.5289    0.0000 C   0  0  0  0  0  0  0  0  0  0  0  0
  1  2  1  0
  2  3  1  0
  3  4  1  0
  4  5  1  0
  5  6  1  0
  6  7  1  0
  7  1  1  0
  8  9  1  0
 10 11  2  0
 11 12  1  0
 12 13  2  0
 13 14  1  0
 14 15  2  0
 15 10  1  0
 16 17  2  0
 17 18  1  0
 18 19  2  0
 19 20  1  0
 20 21  2  0
 21 16  1  0
 22 23  1  0
 23 24  1  0
 24 25  1  0
 25 26  1  0
 26 27  1  0
 27 28  1  0
 29 30  1  0
 31 30  1  1
 31 32  1  0
 32 33  1  0
 33 34  1  0
 34 29  1  0
 33 31  1  0
 35 36  2  0
 36 37  1  0
 37 38  2  0
 38 39  1  0
 39 40  2  0
 40 35  1  0
 41 42  3  0
 43 44  1  0
  1  9  1  0
  8 15  1  0
 12 19  1  0
 16 28  1  0
 33 10  1  6
 29 40  1  0
 36 42  1  0
 35 44  1  0
M  END

