
     RDKit          2D

 37 41  0  0  0  0  0  0  0  0999 V2000
    8.6583    8.8927    0.0000 C   0  0  0  0  0  0  0  0  0  0  0  0
    7.3593    8.1427    0.0000 C   0  0  0  0  0  0  0  0  0  0  0  0
    6.0602    8.8927    0.0000 N   0  0  0  0  0  0  0  0  0  0  0  0
    6.0602   10.3927    0.0000 C   0  0  0  0  0  0  0  0  0  0  0  0
    7.3593   11.1427    0.0000 C   0  0  0  0  0  0  0  0  0  0  0  0
    2.1631    8.1427    0.0000 C   0  0  0  0  0  0  0  0  0  0  0  0
    3.4622    8.8927    0.0000 N   0  0  0  0  0  0  0  0  0  0  0  0
    4.7612    8.1427    0.0000 C   0  0  0  0  0  0  0  0  0  0  0  0
   -0.5062    8.2826    0.0000 C   0  0  0  0  0  0  0  0  0  0  0  0
   -1.5099    9.3974    0.0000 N   0  0  0  0  0  0  0  0  0  0  0  0
   -0.7599   10.6964    0.0000 C   0  0  0  0  0  0  0  0  0  0  0  0
    0.7073   10.3845    0.0000 C   0  0  0  0  0  0  0  0  0  0  0  0
    0.8641    8.8927    0.0000 N   0  0  0  0  0  0  0  0  0  0  0  0
   -1.6237   14.4805    0.0000 C   0  0  0  0  0  0  0  0  0  0  0  0
   -2.9940   13.8704    0.0000 C   0  0  0  0  0  0  0  0  0  0  0  0
   -2.8372   12.3786    0.0000 N   0  0  0  0  0  0  0  0  0  0  0  0
   -1.3700   12.0667    0.0000 C   0  0  0  0  0  0  0  0  0  0  0  0
   -0.6200   13.3658    0.0000 C   0  0  0  0  0  0  0  0  0  0  0  0
   -1.3119   15.9477    0.0000 Cl  0  0  0  0  0  0  0  0  0  0  0  0
   -1.4418    3.8810    0.0000 N   0  0  0  0  0  0  0  0  0  0  0  0
   -0.0152    4.3445    0.0000 C   0  0  0  0  0  0  0  0  0  0  0  0
    0.2966    5.8117    0.0000 C   0  0  0  0  0  0  0  0  0  0  0  0
   -0.8181    6.8154    0.0000 C   0  0  0  0  0  0  0  0  0  0  0  0
   -2.2447    6.3519    0.0000 C   0  0  0  0  0  0  0  0  0  0  0  0
   -2.5565    4.8847    0.0000 C   0  0  0  0  0  0  0  0  0  0  0  0
    1.5000    0.0000    0.0000 C   0  0  0  0  0  0  0  0  0  0  0  0
    0.7500   -1.2990    0.0000 N   0  0  0  0  0  0  0  0  0  0  0  0
   -0.7500   -1.2990    0.0000 C   0  0  0  0  0  0  0  0  0  0  0  0
   -1.5000    0.0000    0.0000 C   0  0  0  0  0  0  0  0  0  0  0  0
   -2.9672    0.3119    0.0000 N   0  0  0  0  0  0  0  0  0  0  0  0
   -3.1240    1.8037    0.0000 C   0  0  0  0  0  0  0  0  0  0  0  0
   -1.7537    2.4138    0.0000 N   0  0  0  0  0  0  0  0  0  0  0  0
   -0.7500    1.2990    0.0000 C   0  0  0  0  0  0  0  0  0  0  0  0
    0.7500    1.2990    0.0000 N   0  0  0  0  0  0  0  0  0  0  0  0
   -4.4231    4.0537    0.0000 O   0  0  0  0  0  0  0  0  0  0  0  0
   -4.4231    2.5537    0.0000 C   0  0  0  0  0  0  0  0  0  0  0  0
    3.0000    0.0000    0.0000 I   0  0  0  0  0  0  0  0  0  0  0  0
  1  2  1  0
  2  3  1  0
  3  4  1  0
  4  5  1  0
  6  7  1  0
  7  8  1  0
  9 10  2  0
 10 11  1  0
 11 12  2  0
 12 13  1  0
 13  9  1  0
 14 15  2  0
 15 16  1  0
 16 17  1  0
 17 18  2  0
 18 14  1  0
 20 21  1  0
 21 22  1  0
 22 23  1  0
 23 24  1  0
 24 25  1  0
 25 20  1  0
 26 27  2  0
 27 28  1  0
 28 29  2  0
 29 30  1  0
 30 31  2  0
 31 32  1  0
 32 33  1  0
 33 34  2  0
 34 26  1  0
 33 29  1  0
 35 36  1  0
  3  8  1  0
  6 13  1  0
 11 17  1  0
 14 19  1  0
  9 23  1  0
 20 32  1  0
 31 36  1  0
 26 37  1  0
M  END

