
     RDKit          2D

 35 41  0  0  0  0  0  0  0  0999 V2000
   -7.5785   -4.0051    0.0000 N   0  0  0  0  0  0  0  0  0  0  0  0
   -9.0601   -3.7705    0.0000 C   0  0  0  0  0  0  0  0  0  0  0  0
   -9.2947   -5.2520    0.0000 C   0  0  0  0  0  0  0  0  0  0  0  0
   -7.8132   -5.4867    0.0000 C   0  0  0  0  0  0  0  0  0  0  0  0
   -6.5218   -1.6317    0.0000 N   0  0  0  0  0  0  0  0  0  0  0  0
   -6.3650   -3.1235    0.0000 C   0  0  0  0  0  0  0  0  0  0  0  0
   -5.3083    0.7500    0.0000 C   0  0  0  0  0  0  0  0  0  0  0  0
   -3.8817    1.2135    0.0000 N   0  0  0  0  0  0  0  0  0  0  0  0
   -3.0000    0.0000    0.0000 C   0  0  0  0  0  0  0  0  0  0  0  0
   -3.8817   -1.2135    0.0000 C   0  0  0  0  0  0  0  0  0  0  0  0
   -5.3083   -0.7500    0.0000 N   0  0  0  0  0  0  0  0  0  0  0  0
    0.7500   -1.2990    0.0000 C   0  0  0  0  0  0  0  0  0  0  0  0
    1.5000    0.0000    0.0000 C   0  0  0  0  0  0  0  0  0  0  0  0
    0.7500    1.2990    0.0000 C   0  0  0  0  0  0  0  0  0  0  0  0
   -0.7500    1.2990    0.0000 N   0  0  0  0  0  0  0  0  0  0  0  0
   -1.5000    0.0000    0.0000 C   0  0  0  0  0  0  0  0  0  0  0  0
   -0.7500   -1.2990    0.0000 C   0  0  0  0  0  0  0  0  0  0  0  0
    1.5000   -2.5981    0.0000 C   0  0  0  0  0  0  0  0  0  0  0  0
    1.1118   -4.0470    0.0000 C   0  0  0  0  0  0  0  0  0  0  0  0
    2.5607   -4.4352    0.0000 O   0  0  0  0  0  0  0  0  0  0  0  0
    2.9489   -2.9863    0.0000 C   0  0  0  0  0  0  0  0  0  0  0  0
   -8.8958    1.1271    0.0000 N   0  0  0  0  0  0  0  0  0  0  0  0
   -8.7390    2.6188    0.0000 C   0  0  0  0  0  0  0  0  0  0  0  0
   -7.2718    2.9307    0.0000 C   0  0  0  0  0  0  0  0  0  0  0  0
   -5.7718    2.9307    0.0000 C   0  0  0  0  0  0  0  0  0  0  0  0
   -6.5218    1.6317    0.0000 C   0  0  0  0  0  0  0  0  0  0  0  0
   -7.5255    0.5170    0.0000 C   0  0  0  0  0  0  0  0  0  0  0  0
  -12.5689   -0.1275    0.0000 C   0  0  0  0  0  0  0  0  0  0  0  0
  -11.8189   -1.4266    0.0000 C   0  0  0  0  0  0  0  0  0  0  0  0
  -10.3516   -1.1147    0.0000 N   0  0  0  0  0  0  0  0  0  0  0  0
  -10.1948    0.3771    0.0000 N   0  0  0  0  0  0  0  0  0  0  0  0
  -11.5652    0.9872    0.0000 C   0  0  0  0  0  0  0  0  0  0  0  0
  -11.8770    2.4544    0.0000 N   0  0  0  0  0  0  0  0  0  0  0  0
  -14.6707    1.3996    0.0000 C   0  0  0  0  0  0  0  0  0  0  0  0
  -14.0606    0.0292    0.0000 C   0  0  0  0  0  0  0  0  0  0  0  0
  1  2  1  0
  2  3  1  0
  3  4  1  0
  4  1  1  0
  5  6  1  0
  7  8  2  0
  8  9  1  0
  9 10  2  0
 10 11  1  0
 11  7  1  0
 12 13  2  0
 13 14  1  0
 14 15  2  0
 15 16  1  0
 16 17  2  0
 17 12  1  0
 18 19  1  0
 19 20  1  0
 20 21  1  0
 21 18  1  0
 22 23  1  0
 24 23  1  1
 24 25  1  0
 25 26  1  0
 26 27  1  0
 27 22  1  0
 26 24  1  0
 28 29  1  0
 29 30  2  0
 30 31  1  0
 31 32  1  0
 32 28  2  0
 34 35  1  0
  1  6  1  0
  5 11  1  0
  9 16  1  0
 12 18  1  0
 26  7  1  6
 22 31  1  0
 32 33  1  0
 28 35  1  0
M  END

