
     RDKit          2D

 42 47  0  0  0  0  0  0  0  0999 V2000
    4.5000    0.0000    0.0000 C   0  0  0  0  0  0  0  0  0  0  0  0
    3.0000    0.0000    0.0000 C   0  0  0  0  0  0  0  0  0  0  0  0
    1.5000    0.0000    0.0000 C   0  0  0  0  0  0  0  0  0  0  0  0
    0.7500   -1.2990    0.0000 C   0  0  0  0  0  0  0  0  0  0  0  0
    1.5000   -2.5981    0.0000 C   0  0  0  0  0  0  0  0  0  0  0  0
    0.7500   -3.8971    0.0000 N   0  0  0  0  0  0  0  0  0  0  0  0
    3.0000   -2.5981    0.0000 O   0  0  0  0  0  0  0  0  0  0  0  0
   -0.7500   -1.2990    0.0000 C   0  0  0  0  0  0  0  0  0  0  0  0
   -1.5000   -2.5981    0.0000 N   0  0  0  0  0  0  0  0  0  0  0  0
   -0.8899   -3.9684    0.0000 C   0  0  0  0  0  0  0  0  0  0  0  0
   -2.0046   -4.9721    0.0000 C   0  0  0  0  0  0  0  0  0  0  0  0
   -3.3037   -5.7221    0.0000 C   0  0  0  0  0  0  0  0  0  0  0  0
   -3.3037   -4.2221    0.0000 C   0  0  0  0  0  0  0  0  0  0  0  0
   -4.7954   -4.0653    0.0000 C   0  0  0  0  0  0  0  0  0  0  0  0
   -5.4055   -2.6950    0.0000 C   0  0  0  0  0  0  0  0  0  0  0  0
   -6.8973   -2.5382    0.0000 C   0  0  0  0  0  0  0  0  0  0  0  0
   -7.5074   -1.1679    0.0000 N   0  0  0  0  0  0  0  0  0  0  0  0
   -6.6257    0.0457    0.0000 C   0  0  0  0  0  0  0  0  0  0  0  0
   -7.2359    1.4160    0.0000 C   0  0  0  0  0  0  0  0  0  0  0  0
   -6.3542    2.6295    0.0000 C   0  0  0  0  0  0  0  0  0  0  0  0
   -6.9643    3.9998    0.0000 O   0  0  0  0  0  0  0  0  0  0  0  0
   -4.8624    2.4727    0.0000 C   0  0  0  0  0  0  0  0  0  0  0  0
   -3.9807    3.6862    0.0000 N   0  0  0  0  0  0  0  0  0  0  0  0
   -2.4889    3.5294    0.0000 C   0  0  0  0  0  0  0  0  0  0  0  0
   -8.7276    1.5728    0.0000 C   0  0  0  0  0  0  0  0  0  0  0  0
   -9.3377    2.9431    0.0000 O   0  0  0  0  0  0  0  0  0  0  0  0
   -9.6093    0.3592    0.0000 N   0  0  0  0  0  0  0  0  0  0  0  0
   -8.9992   -1.0111    0.0000 C   0  0  0  0  0  0  0  0  0  0  0  0
   -9.8809   -2.2246    0.0000 O   0  0  0  0  0  0  0  0  0  0  0  0
   -7.7790   -3.7517    0.0000 C   0  0  0  0  0  0  0  0  0  0  0  0
   -7.1689   -5.1220    0.0000 C   0  0  0  0  0  0  0  0  0  0  0  0
   -5.6771   -5.2788    0.0000 C   0  0  0  0  0  0  0  0  0  0  0  0
   -5.0670   -6.6491    0.0000 N   0  0  0  0  0  0  0  0  0  0  0  0
   -5.9487   -7.8627    0.0000 C   0  0  0  0  0  0  0  0  0  0  0  0
   -5.3386   -9.2330    0.0000 N   0  0  0  0  0  0  0  0  0  0  0  0
   -5.8761  -10.6334    0.0000 C   0  0  0  0  0  0  0  0  0  0  0  0
   -4.4758  -11.1709    0.0000 C   0  0  0  0  0  0  0  0  0  0  0  0
   -3.9382   -9.7705    0.0000 C   0  0  0  0  0  0  0  0  0  0  0  0
   -2.9918   -2.7549    0.0000 C   0  0  0  0  0  0  0  0  0  0  0  0
   -1.5000    0.0000    0.0000 N   0  0  0  0  0  0  0  0  0  0  0  0
   -0.7500    1.2990    0.0000 C   0  0  0  0  0  0  0  0  0  0  0  0
    0.7500    1.2990    0.0000 N   0  0  0  0  0  0  0  0  0  0  0  0
  1  2  3  0
  2  3  1  0
  3  4  2  0
  4  5  1  0
  5  6  1  0
  5  7  2  0
  4  8  1  0
  8  9  1  0
  9 10  1  0
 11 10  1  1
 11 12  1  0
 12 13  1  0
 13 14  1  6
 14 15  2  0
 15 16  1  0
 16 17  1  0
 17 18  1  0
 18 19  2  0
 19 20  1  0
 20 21  1  1
 20 22  1  0
 22 23  1  0
 23 24  1  0
 19 25  1  0
 25 26  2  0
 25 27  1  0
 27 28  1  0
 28 29  2  0
 16 30  2  0
 30 31  1  0
 31 32  2  0
 32 33  1  0
 33 34  1  0
 34 35  1  0
 35 36  1  0
 36 37  1  0
 37 38  1  0
 13 39  1  0
  8 40  2  0
 40 41  1  0
 41 42  2  0
 42  3  1  0
 39  9  1  0
 13 11  1  0
 32 14  1  0
 38 35  1  0
 28 17  1  0
M  END

