
     RDKit          2D

 37 40  0  0  0  0  0  0  0  0999 V2000
   -0.0000   -3.6073    0.0000 C   0  0  0  0  0  0  0  0  0  0  0  0
    1.2135   -2.7256    0.0000 N   0  0  0  0  0  0  0  0  0  0  0  0
    0.7500   -1.2990    0.0000 C   0  0  0  0  0  0  0  0  0  0  0  0
    1.5000    0.0000    0.0000 C   0  0  0  0  0  0  0  0  0  0  0  0
    0.7500    1.2990    0.0000 C   0  0  0  0  0  0  0  0  0  0  0  0
   -0.7500    1.2990    0.0000 C   0  0  0  0  0  0  0  0  0  0  0  0
   -1.5000    0.0000    0.0000 N   0  0  0  0  0  0  0  0  0  0  0  0
   -0.7500   -1.2990    0.0000 C   0  0  0  0  0  0  0  0  0  0  0  0
   -1.2135   -2.7256    0.0000 N   0  0  0  0  0  0  0  0  0  0  0  0
   -0.0000   -8.1073    0.0000 C   0  0  0  0  0  0  0  0  0  0  0  0
    1.2990   -7.3573    0.0000 C   0  0  0  0  0  0  0  0  0  0  0  0
    1.2990   -5.8573    0.0000 C   0  0  0  0  0  0  0  0  0  0  0  0
   -0.0000   -5.1073    0.0000 N   0  0  0  0  0  0  0  0  0  0  0  0
   -1.2990   -5.8573    0.0000 C   0  0  0  0  0  0  0  0  0  0  0  0
   -1.2990   -7.3573    0.0000 C   0  0  0  0  0  0  0  0  0  0  0  0
    1.0261  -10.9264    0.0000 O   0  0  0  0  0  0  0  0  0  0  0  0
   -0.4512  -10.6659    0.0000 C   0  0  0  0  0  0  0  0  0  0  0  0
   -0.9642   -9.2564    0.0000 N   0  0  0  0  0  0  0  0  0  0  0  0
   -2.4414   -8.9959    0.0000 C   0  0  0  0  0  0  0  0  0  0  0  0
   -3.4056  -10.1450    0.0000 C   0  0  0  0  0  0  0  0  0  0  0  0
   -4.8828   -9.8845    0.0000 C   0  0  0  0  0  0  0  0  0  0  0  0
   -7.9052  -12.3197    0.0000 C   0  0  0  0  0  0  0  0  0  0  0  0
   -6.7562  -13.2839    0.0000 C   0  0  0  0  0  0  0  0  0  0  0  0
   -5.4841  -12.4890    0.0000 N   0  0  0  0  0  0  0  0  0  0  0  0
   -5.8470  -11.0336    0.0000 C   0  0  0  0  0  0  0  0  0  0  0  0
   -7.3433  -10.9289    0.0000 C   0  0  0  0  0  0  0  0  0  0  0  0
  -14.3555  -11.2503    0.0000 C   0  0  0  0  0  0  0  0  0  0  0  0
  -12.9001  -10.8874    0.0000 C   0  0  0  0  0  0  0  0  0  0  0  0
  -11.8581  -11.9665    0.0000 O   0  0  0  0  0  0  0  0  0  0  0  0
  -10.4027  -11.6036    0.0000 C   0  0  0  0  0  0  0  0  0  0  0  0
   -9.3607  -12.6826    0.0000 C   0  0  0  0  0  0  0  0  0  0  0  0
   -1.8665  -14.3736    0.0000 C   0  0  0  0  0  0  0  0  0  0  0  0
   -0.9023  -13.2245    0.0000 C   0  0  0  0  0  0  0  0  0  0  0  0
   -1.4153  -11.8150    0.0000 N   0  0  0  0  0  0  0  0  0  0  0  0
   -2.8925  -11.5545    0.0000 C   0  0  0  0  0  0  0  0  0  0  0  0
   -3.8567  -12.7036    0.0000 C   0  0  0  0  0  0  0  0  0  0  0  0
    0.9642   -9.2564    0.0000 N   0  0  0  0  0  0  0  0  0  0  0  0
  1  2  2  0
  2  3  1  0
  3  4  2  0
  4  5  1  0
  5  6  2  0
  6  7  1  0
  7  8  1  0
  8  9  2  0
  9  1  1  0
  8  3  1  0
 10 11  1  0
 11 12  1  0
 12 13  1  0
 13 14  1  0
 14 15  1  0
 15 10  1  0
 16 17  2  0
 17 18  1  0
 18 19  1  0
 19 20  1  0
 20 21  1  0
 22 23  2  0
 23 24  1  0
 24 25  1  0
 25 26  2  0
 26 22  1  0
 27 28  1  0
 28 29  1  0
 29 30  1  0
 30 31  1  0
 32 33  1  0
 33 34  1  0
 34 35  1  0
 35 36  1  0
  1 13  1  0
 10 18  1  0
 21 25  1  0
 22 31  1  0
 17 34  1  0
 10 37  1  0
M  END

