
     RDKit          2D

 36 42  0  0  0  0  0  0  0  0999 V2000
    2.2484    6.9199    0.0000 N   0  0  0  0  0  0  0  0  0  0  0  0
    1.3667    8.1334    0.0000 C   0  0  0  0  0  0  0  0  0  0  0  0
    2.2484    9.3469    0.0000 C   0  0  0  0  0  0  0  0  0  0  0  0
    3.6750    8.8834    0.0000 C   0  0  0  0  0  0  0  0  0  0  0  0
    3.6750    7.3834    0.0000 C   0  0  0  0  0  0  0  0  0  0  0  0
    0.8578    2.6401    0.0000 C   0  0  0  0  0  0  0  0  0  0  0  0
    2.3250    2.9520    0.0000 C   0  0  0  0  0  0  0  0  0  0  0  0
    2.7886    4.3786    0.0000 C   0  0  0  0  0  0  0  0  0  0  0  0
    1.7849    5.4933    0.0000 C   0  0  0  0  0  0  0  0  0  0  0  0
    0.3177    5.1814    0.0000 N   0  0  0  0  0  0  0  0  0  0  0  0
   -0.1459    3.7548    0.0000 C   0  0  0  0  0  0  0  0  0  0  0  0
   -2.3313   -1.5000    0.0000 C   0  0  0  0  0  0  0  0  0  0  0  0
   -3.6304   -0.7500    0.0000 N   0  0  0  0  0  0  0  0  0  0  0  0
   -3.6304    0.7500    0.0000 C   0  0  0  0  0  0  0  0  0  0  0  0
   -2.3313    1.5000    0.0000 C   0  0  0  0  0  0  0  0  0  0  0  0
   -1.0323    0.7500    0.0000 N   0  0  0  0  0  0  0  0  0  0  0  0
    0.3943    1.2135    0.0000 C   0  0  0  0  0  0  0  0  0  0  0  0
    1.2760    0.0000    0.0000 C   0  0  0  0  0  0  0  0  0  0  0  0
    0.3943   -1.2135    0.0000 N   0  0  0  0  0  0  0  0  0  0  0  0
   -1.0323   -0.7500    0.0000 C   0  0  0  0  0  0  0  0  0  0  0  0
   -3.7872    0.7418    0.0000 C   0  0  0  0  0  0  0  0  0  0  0  0
   -3.7872    2.2418    0.0000 C   0  0  0  0  0  0  0  0  0  0  0  0
   -5.0862    2.9918    0.0000 C   0  0  0  0  0  0  0  0  0  0  0  0
   -6.5534    3.3037    0.0000 C   0  0  0  0  0  0  0  0  0  0  0  0
   -7.3034    2.0046    0.0000 C   0  0  0  0  0  0  0  0  0  0  0  0
   -6.2997    0.8899    0.0000 C   0  0  0  0  0  0  0  0  0  0  0  0
   -5.0862   -0.0082    0.0000 C   0  0  0  0  0  0  0  0  0  0  0  0
   -4.9294    1.5000    0.0000 N   0  0  0  0  0  0  0  0  0  0  0  0
   -2.4881   -0.0082    0.0000 C   0  0  0  0  0  0  0  0  0  0  0  0
   -1.0462    0.4052    0.0000 O   0  0  0  0  0  0  0  0  0  0  0  0
   -2.4881   -1.5082    0.0000 C   0  0  0  0  0  0  0  0  0  0  0  0
   -1.2746   -2.3899    0.0000 N   0  0  0  0  0  0  0  0  0  0  0  0
   -1.7381   -3.8165    0.0000 C   0  0  0  0  0  0  0  0  0  0  0  0
   -3.2381   -3.8165    0.0000 N   0  0  0  0  0  0  0  0  0  0  0  0
   -3.7016   -2.3899    0.0000 N   0  0  0  0  0  0  0  0  0  0  0  0
   -2.3313   -3.0000    0.0000 N   0  0  0  0  0  0  0  0  0  0  0  0
  1  2  1  0
  2  3  2  0
  3  4  1  0
  4  5  2  0
  5  1  1  0
  6  7  2  0
  7  8  1  0
  8  9  2  0
  9 10  1  0
 10 11  2  0
 11  6  1  0
 12 13  2  0
 13 14  1  0
 14 15  2  0
 15 16  1  0
 16 17  1  0
 17 18  2  0
 18 19  1  0
 19 20  2  0
 20 12  1  0
 20 16  1  0
 21 22  1  0
 23 22  1  1
 23 24  1  0
 24 25  1  0
 26 25  1  1
 26 27  1  0
 26 28  1  0
 27 21  1  0
 28 23  1  0
 29 30  2  0
 31 32  2  0
 32 33  1  0
 33 34  2  0
 34 35  1  0
 35 31  1  0
  1  9  1  0
  6 17  1  0
 14 28  1  0
 21 29  1  6
 29 31  1  0
 12 36  1  0
M  END

