
     RDKit          2D

 39 42  0  0  0  0  0  0  0  0999 V2000
   -2.1470    1.7537    0.0000 C   0  0  0  0  0  0  0  0  0  0  0  0
   -1.8351    3.2209    0.0000 N   0  0  0  0  0  0  0  0  0  0  0  0
   -0.4086    3.6844    0.0000 C   0  0  0  0  0  0  0  0  0  0  0  0
    0.7062    2.6807    0.0000 N   0  0  0  0  0  0  0  0  0  0  0  0
    0.3943    1.2135    0.0000 C   0  0  0  0  0  0  0  0  0  0  0  0
    1.2760    0.0000    0.0000 N   0  0  0  0  0  0  0  0  0  0  0  0
    0.3943   -1.2135    0.0000 C   0  0  0  0  0  0  0  0  0  0  0  0
   -1.0323   -0.7500    0.0000 C   0  0  0  0  0  0  0  0  0  0  0  0
   -1.0323    0.7500    0.0000 C   0  0  0  0  0  0  0  0  0  0  0  0
   -6.4268    0.3631    0.0000 C   0  0  0  0  0  0  0  0  0  0  0  0
   -5.3120   -0.6406    0.0000 C   0  0  0  0  0  0  0  0  0  0  0  0
   -3.8855   -0.1771    0.0000 C   0  0  0  0  0  0  0  0  0  0  0  0
   -3.5736    1.2902    0.0000 N   0  0  0  0  0  0  0  0  0  0  0  0
   -4.6883    2.2939    0.0000 C   0  0  0  0  0  0  0  0  0  0  0  0
   -6.1149    1.8303    0.0000 C   0  0  0  0  0  0  0  0  0  0  0  0
   -7.3123   -3.5054    0.0000 C   0  0  0  0  0  0  0  0  0  0  0  0
   -8.8114   -3.4531    0.0000 O   0  0  0  0  0  0  0  0  0  0  0  0
   -6.5174   -2.2334    0.0000 N   0  0  0  0  0  0  0  0  0  0  0  0
   -7.2216   -0.9090    0.0000 C   0  0  0  0  0  0  0  0  0  0  0  0
   -8.7207   -0.8566    0.0000 C   0  0  0  0  0  0  0  0  0  0  0  0
   -9.5156   -2.1287    0.0000 C   0  0  0  0  0  0  0  0  0  0  0  0
  -13.2180   -0.6996    0.0000 C   0  0  0  0  0  0  0  0  0  0  0  0
  -11.7189   -0.7519    0.0000 C   0  0  0  0  0  0  0  0  0  0  0  0
  -11.0147   -2.0763    0.0000 N   0  0  0  0  0  0  0  0  0  0  0  0
  -11.8096   -3.3484    0.0000 C   0  0  0  0  0  0  0  0  0  0  0  0
  -11.1054   -4.6728    0.0000 O   0  0  0  0  0  0  0  0  0  0  0  0
  -13.3087   -3.2960    0.0000 N   0  0  0  0  0  0  0  0  0  0  0  0
  -14.0129   -1.9716    0.0000 C   0  0  0  0  0  0  0  0  0  0  0  0
  -15.5119   -1.9193    0.0000 O   0  0  0  0  0  0  0  0  0  0  0  0
  -13.0366    4.4934    0.0000 C   0  0  0  0  0  0  0  0  0  0  0  0
  -13.8315    3.2214    0.0000 C   0  0  0  0  0  0  0  0  0  0  0  0
  -13.1273    1.8969    0.0000 C   0  0  0  0  0  0  0  0  0  0  0  0
  -13.9222    0.6249    0.0000 S   0  0  0  0  0  0  0  0  0  0  0  0
   -6.6988   -7.4264    0.0000 C   0  0  0  0  0  0  0  0  0  0  0  0
   -7.4030   -6.1019    0.0000 C   0  0  0  0  0  0  0  0  0  0  0  0
   -6.6081   -4.8299    0.0000 N   0  0  0  0  0  0  0  0  0  0  0  0
   -5.1090   -4.8822    0.0000 C   0  0  0  0  0  0  0  0  0  0  0  0
   -4.4048   -6.2066    0.0000 C   0  0  0  0  0  0  0  0  0  0  0  0
   -7.8175    0.9250    0.0000 N   0  0  0  0  0  0  0  0  0  0  0  0
  1  2  2  0
  2  3  1  0
  3  4  2  0
  4  5  1  0
  5  6  1  0
  6  7  1  0
  7  8  2  0
  8  9  1  0
  9  1  1  0
  9  5  2  0
 10 11  1  0
 11 12  1  0
 12 13  1  0
 13 14  1  0
 14 15  1  0
 15 10  1  0
 16 17  2  0
 16 18  1  0
 18 19  1  0
 19 20  1  1
 20 21  1  0
 22 23  2  0
 23 24  1  0
 24 25  1  0
 25 26  2  0
 25 27  1  0
 27 28  1  0
 28 29  2  0
 28 22  1  0
 30 31  1  0
 31 32  1  0
 32 33  1  0
 34 35  1  0
 35 36  1  0
 36 37  1  0
 37 38  1  0
  1 13  1  0
 10 19  1  0
 21 24  1  0
 22 33  1  0
 16 36  1  0
 10 39  1  0
M  END

