
     RDKit          2D

 27 30  0  0  0  0  0  0  0  0999 V2000
   -0.5619    5.2253    0.0000 O   0  0  0  0  0  0  0  0  0  0  0  0
   -1.7754    6.1070    0.0000 C   0  0  0  0  0  0  0  0  0  0  0  0
   -3.1458    5.4969    0.0000 C   0  0  0  0  0  0  0  0  0  0  0  0
   -3.3025    4.0051    0.0000 C   0  0  0  0  0  0  0  0  0  0  0  0
   -4.6729    3.3950    0.0000 C   0  0  0  0  0  0  0  0  0  0  0  0
   -4.8297    1.9033    0.0000 C   0  0  0  0  0  0  0  0  0  0  0  0
   -6.2000    1.2931    0.0000 O   0  0  0  0  0  0  0  0  0  0  0  0
   -3.6161    1.0216    0.0000 N   0  0  0  0  0  0  0  0  0  0  0  0
   -2.2458    1.6317    0.0000 C   0  0  0  0  0  0  0  0  0  0  0  0
   -1.0323    0.7500    0.0000 N   0  0  0  0  0  0  0  0  0  0  0  0
    0.3943    1.2135    0.0000 C   0  0  0  0  0  0  0  0  0  0  0  0
    1.2760    0.0000    0.0000 C   0  0  0  0  0  0  0  0  0  0  0  0
    0.3943   -1.2135    0.0000 C   0  0  0  0  0  0  0  0  0  0  0  0
   -1.0323   -0.7500    0.0000 C   0  0  0  0  0  0  0  0  0  0  0  0
   -2.3463   -0.0067    0.0000 C   0  0  0  0  0  0  0  0  0  0  0  0
   -2.1895    1.4851    0.0000 N   0  0  0  0  0  0  0  0  0  0  0  0
   -3.4031    2.3668    0.0000 Br  0  0  0  0  0  0  0  0  0  0  0  0
   -0.8192    2.0952    0.0000 C   0  0  0  0  0  0  0  0  0  0  0  0
   -2.0890    3.1235    0.0000 N   0  0  0  0  0  0  0  0  0  0  0  0
   -1.6186    7.5988    0.0000 N   0  0  0  0  0  0  0  0  0  0  0  0
   -0.2483    8.2089    0.0000 C   0  0  0  0  0  0  0  0  0  0  0  0
    0.9652    7.3272    0.0000 C   0  0  0  0  0  0  0  0  0  0  0  0
    2.3355    7.9373    0.0000 C   0  0  0  0  0  0  0  0  0  0  0  0
    2.4923    9.4291    0.0000 C   0  0  0  0  0  0  0  0  0  0  0  0
    3.8626   10.0392    0.0000 F   0  0  0  0  0  0  0  0  0  0  0  0
    1.2788   10.3108    0.0000 C   0  0  0  0  0  0  0  0  0  0  0  0
   -0.0915    9.7007    0.0000 C   0  0  0  0  0  0  0  0  0  0  0  0
  1  2  2  0
  2  3  1  0
  3  4  1  0
  4  5  2  0
  5  6  1  0
  6  7  2  0
  6  8  1  0
  8  9  1  0
  9 10  1  0
 10 11  1  0
 11 12  1  0
 12 13  1  0
 13 14  1  0
 14 15  1  0
 15 16  1  0
 16 17  1  0
 16 18  1  0
  9 19  2  0
  2 20  1  0
 20 21  1  0
 21 22  2  0
 22 23  1  0
 23 24  2  0
 24 25  1  0
 24 26  1  0
 26 27  2  0
 19  4  1  0
 27 21  1  0
 14 10  1  0
 18 11  1  0
M  ISO  1  25  18
M  END

