
     RDKit          2D

 39 43  0  0  0  0  0  0  0  0999 V2000
    1.5000    2.5981    0.0000 Br  0  0  0  0  0  0  0  0  0  0  0  0
    1.5000    0.0000    0.0000 C   0  0  0  0  0  0  0  0  0  0  0  0
    0.7500   -1.2990    0.0000 N   0  0  0  0  0  0  0  0  0  0  0  0
   -0.7500   -1.2990    0.0000 C   0  0  0  0  0  0  0  0  0  0  0  0
   -1.5000    0.0000    0.0000 N   0  0  0  0  0  0  0  0  0  0  0  0
   -0.7500    1.2990    0.0000 C   0  0  0  0  0  0  0  0  0  0  0  0
    0.7500    1.2990    0.0000 C   0  0  0  0  0  0  0  0  0  0  0  0
   -1.5000    5.1962    0.0000 N   0  0  0  0  0  0  0  0  0  0  0  0
   -3.0000    5.1962    0.0000 C   0  0  0  0  0  0  0  0  0  0  0  0
   -3.7500    3.8971    0.0000 C   0  0  0  0  0  0  0  0  0  0  0  0
   -3.0000    2.5981    0.0000 C   0  0  0  0  0  0  0  0  0  0  0  0
   -1.5000    2.5981    0.0000 C   0  0  0  0  0  0  0  0  0  0  0  0
   -0.7500    3.8971    0.0000 C   0  0  0  0  0  0  0  0  0  0  0  0
   -1.3601    7.8655    0.0000 C   0  0  0  0  0  0  0  0  0  0  0  0
   -0.2454    8.8692    0.0000 N   0  0  0  0  0  0  0  0  0  0  0  0
    1.0537    8.1192    0.0000 C   0  0  0  0  0  0  0  0  0  0  0  0
    0.7418    6.6520    0.0000 C   0  0  0  0  0  0  0  0  0  0  0  0
   -0.7500    6.4952    0.0000 N   0  0  0  0  0  0  0  0  0  0  0  0
    6.2213    7.5761    0.0000 C   0  0  0  0  0  0  0  0  0  0  0  0
    5.0078    8.4577    0.0000 C   0  0  0  0  0  0  0  0  0  0  0  0
    3.6375    7.8476    0.0000 C   0  0  0  0  0  0  0  0  0  0  0  0
    2.4240    8.7293    0.0000 N   0  0  0  0  0  0  0  0  0  0  0  0
    7.5917    8.1862    0.0000 N   0  0  0  0  0  0  0  0  0  0  0  0
    7.9035    9.6534    0.0000 C   0  0  0  0  0  0  0  0  0  0  0  0
    9.3953    9.8102    0.0000 C   0  0  0  0  0  0  0  0  0  0  0  0
   10.0054    8.4399    0.0000 C   0  0  0  0  0  0  0  0  0  0  0  0
    8.8907    7.4362    0.0000 C   0  0  0  0  0  0  0  0  0  0  0  0
   -5.2982    7.3745    0.0000 C   0  0  0  0  0  0  0  0  0  0  0  0
   -5.7618    8.8011    0.0000 C   0  0  0  0  0  0  0  0  0  0  0  0
   -4.7581    9.9158    0.0000 C   0  0  0  0  0  0  0  0  0  0  0  0
   -3.2909    9.6040    0.0000 C   0  0  0  0  0  0  0  0  0  0  0  0
   -2.8273    8.1774    0.0000 C   0  0  0  0  0  0  0  0  0  0  0  0
   -3.8310    7.0627    0.0000 C   0  0  0  0  0  0  0  0  0  0  0  0
   -9.2364    6.8835    0.0000 F   0  0  0  0  0  0  0  0  0  0  0  0
   -7.7692    6.5717    0.0000 C   0  0  0  0  0  0  0  0  0  0  0  0
   -8.0810    5.1045    0.0000 F   0  0  0  0  0  0  0  0  0  0  0  0
   -7.4573    8.0389    0.0000 F   0  0  0  0  0  0  0  0  0  0  0  0
   -6.3019    6.2598    0.0000 O   0  0  0  0  0  0  0  0  0  0  0  0
    3.0000    0.0000    0.0000 N   0  0  0  0  0  0  0  0  0  0  0  0
  2  3  2  0
  3  4  1  0
  4  5  2  0
  5  6  1  0
  6  7  2  0
  7  2  1  0
  8  9  1  0
  9 10  1  0
 10 11  1  0
 11 12  1  0
 12 13  1  0
 13  8  1  0
 14 15  2  0
 15 16  1  0
 16 17  2  0
 17 18  1  0
 18 14  1  0
 19 20  1  0
 20 21  1  0
 21 22  1  0
 23 24  1  0
 24 25  1  0
 25 26  1  0
 26 27  1  0
 27 23  1  0
 28 29  2  0
 29 30  1  0
 30 31  2  0
 31 32  1  0
 32 33  2  0
 33 28  1  0
 34 35  1  0
 35 36  1  0
 35 37  1  0
 35 38  1  0
  1  7  1  0
 12  6  1  1
  8 18  1  0
 16 22  1  0
 19 23  1  0
 14 32  1  0
 28 38  1  0
  2 39  1  0
M  END

