
     RDKit          2D

 40 45  0  0  0  0  0  0  0  0999 V2000
   -7.0505   -2.5713    0.0000 C   0  0  0  0  0  0  0  0  0  0  0  0
   -5.6239   -2.1078    0.0000 O   0  0  0  0  0  0  0  0  0  0  0  0
   -5.3120   -0.6406    0.0000 C   0  0  0  0  0  0  0  0  0  0  0  0
   -3.8855   -0.1771    0.0000 C   0  0  0  0  0  0  0  0  0  0  0  0
   -3.5736    1.2902    0.0000 N   0  0  0  0  0  0  0  0  0  0  0  0
   -4.6883    2.2939    0.0000 C   0  0  0  0  0  0  0  0  0  0  0  0
   -0.4086    3.6844    0.0000 C   0  0  0  0  0  0  0  0  0  0  0  0
    0.7062    2.6807    0.0000 C   0  0  0  0  0  0  0  0  0  0  0  0
    0.3943    1.2135    0.0000 N   0  0  0  0  0  0  0  0  0  0  0  0
    1.2760    0.0000    0.0000 C   0  0  0  0  0  0  0  0  0  0  0  0
    0.3943   -1.2135    0.0000 C   0  0  0  0  0  0  0  0  0  0  0  0
   -1.0323   -0.7500    0.0000 N   0  0  0  0  0  0  0  0  0  0  0  0
   -1.0323    0.7500    0.0000 C   0  0  0  0  0  0  0  0  0  0  0  0
   -2.1470    1.7537    0.0000 C   0  0  0  0  0  0  0  0  0  0  0  0
   -1.8351    3.2209    0.0000 N   0  0  0  0  0  0  0  0  0  0  0  0
    1.7849   -5.4933    0.0000 C   0  0  0  0  0  0  0  0  0  0  0  0
    0.3177   -5.1814    0.0000 C   0  0  0  0  0  0  0  0  0  0  0  0
   -0.1459   -3.7548    0.0000 N   0  0  0  0  0  0  0  0  0  0  0  0
    0.8578   -2.6401    0.0000 C   0  0  0  0  0  0  0  0  0  0  0  0
    2.3250   -2.9520    0.0000 N   0  0  0  0  0  0  0  0  0  0  0  0
    2.7886   -4.3786    0.0000 C   0  0  0  0  0  0  0  0  0  0  0  0
    2.2484   -6.9199    0.0000 C   0  0  0  0  0  0  0  0  0  0  0  0
    1.2447   -8.0346    0.0000 C   0  0  0  0  0  0  0  0  0  0  0  0
    0.2410   -9.1493    0.0000 N   0  0  0  0  0  0  0  0  0  0  0  0
   -0.5602    6.5782    0.0000 C   0  0  0  0  0  0  0  0  0  0  0  0
    0.9070    6.2664    0.0000 C   0  0  0  0  0  0  0  0  0  0  0  0
   -0.0967    5.1517    0.0000 C   0  0  0  0  0  0  0  0  0  0  0  0
   -3.8921    8.5691    0.0000 N   0  0  0  0  0  0  0  0  0  0  0  0
   -2.8885    9.6838    0.0000 C   0  0  0  0  0  0  0  0  0  0  0  0
   -1.5181    9.0737    0.0000 C   0  0  0  0  0  0  0  0  0  0  0  0
   -1.6749    7.5819    0.0000 N   0  0  0  0  0  0  0  0  0  0  0  0
   -3.1421    7.2701    0.0000 C   0  0  0  0  0  0  0  0  0  0  0  0
   -3.7523    5.8998    0.0000 O   0  0  0  0  0  0  0  0  0  0  0  0
   -7.6012    9.7131    0.0000 N   0  0  0  0  0  0  0  0  0  0  0  0
   -7.7579    8.2213    0.0000 C   0  0  0  0  0  0  0  0  0  0  0  0
   -6.3876    7.6112    0.0000 C   0  0  0  0  0  0  0  0  0  0  0  0
   -5.3839    8.7259    0.0000 N   0  0  0  0  0  0  0  0  0  0  0  0
   -6.1339   10.0249    0.0000 S   0  0  0  0  0  0  0  0  0  0  0  0
   -6.5975   11.4515    0.0000 O   0  0  0  0  0  0  0  0  0  0  0  0
   -4.7636   10.6351    0.0000 O   0  0  0  0  0  0  0  0  0  0  0  0
  1  2  1  0
  2  3  1  0
  3  4  1  0
  4  5  1  0
  5  6  1  0
  7  8  2  0
  8  9  1  0
  9 10  1  0
 10 11  2  0
 11 12  1  0
 12 13  2  0
 13 14  1  0
 14 15  2  0
 15  7  1  0
 13  9  1  0
 16 17  2  0
 17 18  1  0
 18 19  2  0
 19 20  1  0
 20 21  2  0
 21 16  1  0
 22 23  1  0
 23 24  3  0
 25 26  1  0
 26 27  1  0
 27 25  1  0
 28 29  1  0
 29 30  1  0
 30 31  1  0
 31 32  1  0
 32 33  2  0
 32 28  1  0
 34 35  1  0
 35 36  1  0
 36 37  1  0
 37 38  1  0
 38 39  2  0
 38 40  2  0
 38 34  1  0
  5 14  1  0
 11 19  1  0
 16 22  1  0
 27  7  1  6
 25 31  1  1
 28 37  1  0
M  END

