
     RDKit          2D

 34 38  0  0  0  0  0  0  0  0999 V2000
   -2.6261   -2.9336    0.0000 N   0  0  0  0  0  0  0  0  0  0  0  0
   -6.2992   -1.6790    0.0000 C   0  0  0  0  0  0  0  0  0  0  0  0
   -5.5492   -0.3800    0.0000 N   0  0  0  0  0  0  0  0  0  0  0  0
   -4.0819   -0.6918    0.0000 C   0  0  0  0  0  0  0  0  0  0  0  0
   -3.9251   -2.1836    0.0000 N   0  0  0  0  0  0  0  0  0  0  0  0
   -5.2955   -2.7937    0.0000 N   0  0  0  0  0  0  0  0  0  0  0  0
    1.5000    0.0000    0.0000 C   0  0  0  0  0  0  0  0  0  0  0  0
    0.7500   -1.2990    0.0000 C   0  0  0  0  0  0  0  0  0  0  0  0
   -0.7500   -1.2990    0.0000 C   0  0  0  0  0  0  0  0  0  0  0  0
   -1.5000    0.0000    0.0000 C   0  0  0  0  0  0  0  0  0  0  0  0
   -2.9672    0.3119    0.0000 C   0  0  0  0  0  0  0  0  0  0  0  0
   -3.1240    1.8037    0.0000 N   0  0  0  0  0  0  0  0  0  0  0  0
   -1.7537    2.4138    0.0000 N   0  0  0  0  0  0  0  0  0  0  0  0
   -0.7500    1.2990    0.0000 C   0  0  0  0  0  0  0  0  0  0  0  0
    0.7500    1.2990    0.0000 C   0  0  0  0  0  0  0  0  0  0  0  0
    4.5000   -2.5981    0.0000 N   0  0  0  0  0  0  0  0  0  0  0  0
    3.7500   -1.2990    0.0000 C   0  0  0  0  0  0  0  0  0  0  0  0
    3.0000    0.0000    0.0000 C   0  0  0  0  0  0  0  0  0  0  0  0
   -8.4010   -3.2061    0.0000 C   0  0  0  0  0  0  0  0  0  0  0  0
   -9.8928   -3.3629    0.0000 C   0  0  0  0  0  0  0  0  0  0  0  0
  -10.7745   -2.1494    0.0000 C   0  0  0  0  0  0  0  0  0  0  0  0
  -10.1644   -0.7791    0.0000 C   0  0  0  0  0  0  0  0  0  0  0  0
   -8.6726   -0.6223    0.0000 C   0  0  0  0  0  0  0  0  0  0  0  0
   -7.7909   -1.8358    0.0000 N   0  0  0  0  0  0  0  0  0  0  0  0
   -8.9442    1.9616    0.0000 O   0  0  0  0  0  0  0  0  0  0  0  0
  -10.4360    1.8048    0.0000 C   0  0  0  0  0  0  0  0  0  0  0  0
  -11.0461    0.4345    0.0000 N   0  0  0  0  0  0  0  0  0  0  0  0
  -11.3177    3.0183    0.0000 C   0  0  0  0  0  0  0  0  0  0  0  0
  -10.7075    4.3886    0.0000 C   0  0  0  0  0  0  0  0  0  0  0  0
  -11.5892    5.6022    0.0000 C   0  0  0  0  0  0  0  0  0  0  0  0
  -13.0810    5.4454    0.0000 C   0  0  0  0  0  0  0  0  0  0  0  0
  -13.6911    4.0750    0.0000 C   0  0  0  0  0  0  0  0  0  0  0  0
  -12.8094    2.8615    0.0000 C   0  0  0  0  0  0  0  0  0  0  0  0
   -7.5194   -4.4196    0.0000 C   0  0  0  0  0  0  0  0  0  0  0  0
  2  3  1  0
  3  4  2  0
  4  5  1  0
  5  6  1  0
  6  2  2  0
  7  8  2  0
  8  9  1  0
  9 10  2  0
 10 11  1  0
 11 12  2  0
 12 13  1  0
 13 14  1  0
 14 15  2  0
 15  7  1  0
 14 10  1  0
 16 17  3  0
 17 18  1  0
 19 20  1  0
 20 21  1  0
 21 22  1  0
 22 23  1  0
 23 24  1  0
 24 19  1  0
 25 26  2  0
 26 27  1  0
 28 29  1  0
 29 30  1  0
 30 31  1  0
 31 32  1  0
 32 33  1  0
 33 28  1  0
  1  5  1  0
  4 11  1  0
  7 18  1  0
  2 24  1  0
 22 27  1  1
 26 28  1  0
 19 34  1  6
M  END

