
     RDKit          2D

 33 36  0  0  0  0  0  0  0  0999 V2000
   -4.2250   15.9861    0.0000 N   0  0  0  0  0  0  0  0  0  0  0  0
   -4.2475   14.4862    0.0000 C   0  0  0  0  0  0  0  0  0  0  0  0
   -4.2699   12.9864    0.0000 C   0  0  0  0  0  0  0  0  0  0  0  0
   -2.9823   12.2171    0.0000 C   0  0  0  0  0  0  0  0  0  0  0  0
   -1.6946   11.4477    0.0000 N   0  0  0  0  0  0  0  0  0  0  0  0
   -5.5800   12.2559    0.0000 C   0  0  0  0  0  0  0  0  0  0  0  0
   -5.6025   10.7561    0.0000 C   0  0  0  0  0  0  0  0  0  0  0  0
   -4.3148    9.9867    0.0000 C   0  0  0  0  0  0  0  0  0  0  0  0
   -4.3372    8.4869    0.0000 C   0  0  0  0  0  0  0  0  0  0  0  0
   -3.0496    7.7176    0.0000 O   0  0  0  0  0  0  0  0  0  0  0  0
   -3.0720    6.2177    0.0000 C   0  0  0  0  0  0  0  0  0  0  0  0
   -1.7843    5.4484    0.0000 C   0  0  0  0  0  0  0  0  0  0  0  0
   -0.4742    6.1789    0.0000 N   0  0  0  0  0  0  0  0  0  0  0  0
   -1.8068    3.9485    0.0000 C   0  0  0  0  0  0  0  0  0  0  0  0
   -0.5191    3.1792    0.0000 C   0  0  0  0  0  0  0  0  0  0  0  0
    0.8602    3.7687    0.0000 C   0  0  0  0  0  0  0  0  0  0  0  0
    1.8471    2.6391    0.0000 C   0  0  0  0  0  0  0  0  0  0  0  0
    1.0777    1.3515    0.0000 C   0  0  0  0  0  0  0  0  0  0  0  0
    1.7286    0.0000    0.0000 C   0  0  0  0  0  0  0  0  0  0  0  0
    1.0777   -1.3515    0.0000 C   0  0  0  0  0  0  0  0  0  0  0  0
   -0.3846   -1.6852    0.0000 C   0  0  0  0  0  0  0  0  0  0  0  0
   -1.5574   -0.7500    0.0000 C   0  0  0  0  0  0  0  0  0  0  0  0
   -1.5574    0.7500    0.0000 C   0  0  0  0  0  0  0  0  0  0  0  0
   -0.3846    1.6852    0.0000 C   0  0  0  0  0  0  0  0  0  0  0  0
   -5.6474    7.7564    0.0000 C   0  0  0  0  0  0  0  0  0  0  0  0
   -6.9350    8.5258    0.0000 C   0  0  0  0  0  0  0  0  0  0  0  0
   -8.2451    7.7953    0.0000 C   0  0  0  0  0  0  0  0  0  0  0  0
   -9.5328    8.5646    0.0000 C   0  0  0  0  0  0  0  0  0  0  0  0
  -10.8429    7.8342    0.0000 C   0  0  0  0  0  0  0  0  0  0  0  0
  -10.8654    6.3343    0.0000 N   0  0  0  0  0  0  0  0  0  0  0  0
   -9.5777    5.5650    0.0000 C   0  0  0  0  0  0  0  0  0  0  0  0
   -8.2676    6.2955    0.0000 C   0  0  0  0  0  0  0  0  0  0  0  0
   -6.9126   10.0256    0.0000 C   0  0  0  0  0  0  0  0  0  0  0  0
  1  2  3  0
  2  3  1  0
  3  4  1  0
  4  5  3  0
  3  6  2  3
  6  7  1  0
  7  8  2  0
  8  9  1  0
  9 10  1  0
 10 11  1  0
 11 12  1  0
 12 13  1  1
 12 14  1  0
 14 15  1  0
 15 16  2  0
 16 17  1  0
 17 18  2  0
 18 19  1  0
 19 20  2  0
 20 21  1  0
 21 22  2  0
 22 23  1  0
 23 24  2  0
  9 25  2  0
 25 26  1  0
 26 27  1  0
 27 28  2  0
 28 29  1  0
 29 30  2  0
 30 31  1  0
 31 32  2  0
 26 33  2  0
 33  7  1  0
 24 15  1  0
 32 27  1  0
 24 18  1  0
M  END

