
     RDKit          2D

 40 45  0  0  0  0  0  0  0  0999 V2000
   -4.6740    4.8322    0.0000 C   0  0  0  0  0  0  0  0  0  0  0  0
   -2.0046    4.9721    0.0000 C   0  0  0  0  0  0  0  0  0  0  0  0
   -0.8899    3.9684    0.0000 C   0  0  0  0  0  0  0  0  0  0  0  0
   -1.5000    2.5981    0.0000 C   0  0  0  0  0  0  0  0  0  0  0  0
   -2.9918    2.7549    0.0000 N   0  0  0  0  0  0  0  0  0  0  0  0
   -3.3037    4.2221    0.0000 N   0  0  0  0  0  0  0  0  0  0  0  0
    1.5000    0.0000    0.0000 C   0  0  0  0  0  0  0  0  0  0  0  0
    0.7500   -1.2990    0.0000 C   0  0  0  0  0  0  0  0  0  0  0  0
   -0.7500   -1.2990    0.0000 C   0  0  0  0  0  0  0  0  0  0  0  0
   -1.5000    0.0000    0.0000 C   0  0  0  0  0  0  0  0  0  0  0  0
   -0.7500    1.2990    0.0000 C   0  0  0  0  0  0  0  0  0  0  0  0
    0.7500    1.2990    0.0000 C   0  0  0  0  0  0  0  0  0  0  0  0
   -4.5000    0.0000    0.0000 F   0  0  0  0  0  0  0  0  0  0  0  0
   -3.0000    0.0000    0.0000 C   0  0  0  0  0  0  0  0  0  0  0  0
   -3.0000    1.5000    0.0000 F   0  0  0  0  0  0  0  0  0  0  0  0
   -3.0000   -1.5000    0.0000 F   0  0  0  0  0  0  0  0  0  0  0  0
    3.0000    0.0000    0.0000 F   0  0  0  0  0  0  0  0  0  0  0  0
   -3.4718    8.2675    0.0000 N   0  0  0  0  0  0  0  0  0  0  0  0
   -2.1015    8.8776    0.0000 C   0  0  0  0  0  0  0  0  0  0  0  0
   -1.0978    7.7629    0.0000 C   0  0  0  0  0  0  0  0  0  0  0  0
   -0.3478    6.4639    0.0000 C   0  0  0  0  0  0  0  0  0  0  0  0
   -1.8478    6.4639    0.0000 C   0  0  0  0  0  0  0  0  0  0  0  0
   -3.3150    6.7757    0.0000 C   0  0  0  0  0  0  0  0  0  0  0  0
   -4.7709   10.5175    0.0000 C   0  0  0  0  0  0  0  0  0  0  0  0
   -6.0699   11.2675    0.0000 C   0  0  0  0  0  0  0  0  0  0  0  0
   -7.3689   10.5175    0.0000 N   0  0  0  0  0  0  0  0  0  0  0  0
   -7.3689    9.0175    0.0000 C   0  0  0  0  0  0  0  0  0  0  0  0
   -6.0699    8.2675    0.0000 N   0  0  0  0  0  0  0  0  0  0  0  0
   -4.7709    9.0175    0.0000 C   0  0  0  0  0  0  0  0  0  0  0  0
   -6.0699   12.7675    0.0000 N   0  0  0  0  0  0  0  0  0  0  0  0
   -0.8738   12.7675    0.0000 C   0  0  0  0  0  0  0  0  0  0  0  0
   -0.8738   11.2675    0.0000 C   0  0  0  0  0  0  0  0  0  0  0  0
   -2.1728   10.5175    0.0000 C   0  0  0  0  0  0  0  0  0  0  0  0
   -3.4718   11.2675    0.0000 C   0  0  0  0  0  0  0  0  0  0  0  0
   -3.4718   12.7675    0.0000 C   0  0  0  0  0  0  0  0  0  0  0  0
   -2.1728   13.5175    0.0000 N   0  0  0  0  0  0  0  0  0  0  0  0
    3.0234   13.5175    0.0000 O   0  0  0  0  0  0  0  0  0  0  0  0
    1.7243   12.7675    0.0000 C   0  0  0  0  0  0  0  0  0  0  0  0
    1.7243   11.2675    0.0000 O   0  0  0  0  0  0  0  0  0  0  0  0
    0.4253   13.5175    0.0000 C   0  0  0  0  0  0  0  0  0  0  0  0
  2  3  2  0
  3  4  1  0
  4  5  2  0
  5  6  1  0
  6  2  1  0
  7  8  2  0
  8  9  1  0
  9 10  2  0
 10 11  1  0
 11 12  2  0
 12  7  1  0
 13 14  1  0
 14 15  1  0
 14 16  1  0
 18 19  1  0
 20 19  1  1
 20 21  1  0
 21 22  1  0
 22 23  1  0
 23 18  1  0
 22 20  1  0
 24 25  2  0
 25 26  1  0
 26 27  2  0
 27 28  1  0
 28 29  2  0
 29 24  1  0
 31 32  2  0
 32 33  1  0
 33 34  2  0
 34 35  1  0
 35 36  2  0
 36 31  1  0
 37 38  2  0
 38 39  1  0
 38 40  1  0
  1  6  1  0
  4 11  1  0
 10 14  1  0
  7 17  1  0
 22  2  1  6
 18 29  1  0
 25 30  1  0
 24 34  1  0
 31 40  1  0
M  END

