
     RDKit          2D

 33 38  0  0  0  0  0  0  0  0999 V2000
   -0.7500   -1.2990    0.0000 N   0  0  0  0  0  0  0  0  0  0  0  0
    0.7500   -1.2990    0.0000 C   0  0  0  0  0  0  0  0  0  0  0  0
    1.5000    0.0000    0.0000 C   0  0  0  0  0  0  0  0  0  0  0  0
    0.7500    1.2990    0.0000 O   0  0  0  0  0  0  0  0  0  0  0  0
   -0.7500    1.2990    0.0000 C   0  0  0  0  0  0  0  0  0  0  0  0
   -1.5000    0.0000    0.0000 C   0  0  0  0  0  0  0  0  0  0  0  0
   -2.2500   -1.2990    0.0000 C   0  0  0  0  0  0  0  0  0  0  0  0
   -1.5000   -2.5981    0.0000 O   0  0  0  0  0  0  0  0  0  0  0  0
   -0.0000   -2.5981    0.0000 C   0  0  0  0  0  0  0  0  0  0  0  0
   -2.0046   -4.9721    0.0000 C   0  0  0  0  0  0  0  0  0  0  0  0
   -3.3037   -4.2221    0.0000 C   0  0  0  0  0  0  0  0  0  0  0  0
   -2.9918   -2.7549    0.0000 C   0  0  0  0  0  0  0  0  0  0  0  0
   -1.5000   -2.5981    0.0000 N   0  0  0  0  0  0  0  0  0  0  0  0
   -0.8899   -3.9684    0.0000 N   0  0  0  0  0  0  0  0  0  0  0  0
   -3.9955   -1.6402    0.0000 N   0  0  0  0  0  0  0  0  0  0  0  0
   -3.5320   -0.2136    0.0000 C   0  0  0  0  0  0  0  0  0  0  0  0
   -4.5356    0.9012    0.0000 C   0  0  0  0  0  0  0  0  0  0  0  0
   -6.0029    0.5893    0.0000 O   0  0  0  0  0  0  0  0  0  0  0  0
   -6.4664   -0.8373    0.0000 C   0  0  0  0  0  0  0  0  0  0  0  0
   -5.4627   -1.9520    0.0000 C   0  0  0  0  0  0  0  0  0  0  0  0
   -4.4590   -3.0667    0.0000 C   0  0  0  0  0  0  0  0  0  0  0  0
   -2.9918   -2.7549    0.0000 O   0  0  0  0  0  0  0  0  0  0  0  0
   -2.5283   -1.3283    0.0000 C   0  0  0  0  0  0  0  0  0  0  0  0
   -1.5342   -9.4474    0.0000 C   0  0  0  0  0  0  0  0  0  0  0  0
   -2.9046   -8.8373    0.0000 C   0  0  0  0  0  0  0  0  0  0  0  0
   -3.0613   -7.3456    0.0000 C   0  0  0  0  0  0  0  0  0  0  0  0
   -1.8478   -6.4639    0.0000 C   0  0  0  0  0  0  0  0  0  0  0  0
   -0.4775   -7.0740    0.0000 C   0  0  0  0  0  0  0  0  0  0  0  0
   -0.3207   -8.5658    0.0000 N   0  0  0  0  0  0  0  0  0  0  0  0
   -5.6452   -7.6171    0.0000 F   0  0  0  0  0  0  0  0  0  0  0  0
   -4.4317   -6.7354    0.0000 C   0  0  0  0  0  0  0  0  0  0  0  0
   -4.5885   -5.2437    0.0000 F   0  0  0  0  0  0  0  0  0  0  0  0
   -1.3774  -10.9392    0.0000 N   0  0  0  0  0  0  0  0  0  0  0  0
  1  2  1  0
  2  3  1  0
  3  4  1  0
  4  5  1  0
  5  6  1  0
  6  7  1  0
  7  8  1  0
  8  9  1  0
  6  1  1  0
  9  2  1  0
 10 11  1  0
 11 12  2  0
 12 13  1  0
 13 14  1  0
 14 10  2  0
 15 16  1  0
 16 17  1  0
 17 18  1  0
 18 19  1  0
 19 20  1  0
 20 21  1  0
 21 22  1  0
 22 23  1  0
 20 15  1  0
 23 16  1  0
 24 25  2  0
 25 26  1  0
 26 27  2  0
 27 28  1  0
 28 29  2  0
 29 24  1  0
 30 31  1  0
 31 32  1  0
  1 13  1  0
 12 15  1  0
 10 27  1  0
 26 31  1  0
 24 33  1  0
M  END

