
     RDKit          2D

 45 49  0  0  0  0  0  0  0  0999 V2000
   -6.7856    2.2002    0.0000 C   0  0  0  0  0  0  0  0  0  0  0  0
   -7.2492    0.7736    0.0000 C   0  0  0  0  0  0  0  0  0  0  0  0
   -8.7164    0.4617    0.0000 C   0  0  0  0  0  0  0  0  0  0  0  0
   -6.2455   -0.3411    0.0000 S   0  0  0  0  0  0  0  0  0  0  0  0
   -5.1308    0.6626    0.0000 O   0  0  0  0  0  0  0  0  0  0  0  0
   -7.3602   -1.3448    0.0000 O   0  0  0  0  0  0  0  0  0  0  0  0
   -3.7500   -1.2990    0.0000 C   0  0  0  0  0  0  0  0  0  0  0  0
   -3.1399   -2.6694    0.0000 C   0  0  0  0  0  0  0  0  0  0  0  0
   -4.2546   -3.6731    0.0000 C   0  0  0  0  0  0  0  0  0  0  0  0
   -5.5537   -2.9231    0.0000 N   0  0  0  0  0  0  0  0  0  0  0  0
   -5.2418   -1.4558    0.0000 C   0  0  0  0  0  0  0  0  0  0  0  0
   -3.0000    0.0000    0.0000 N   0  0  0  0  0  0  0  0  0  0  0  0
    0.7500   -1.2990    0.0000 C   0  0  0  0  0  0  0  0  0  0  0  0
    1.5000    0.0000    0.0000 N   0  0  0  0  0  0  0  0  0  0  0  0
    0.7500    1.2990    0.0000 C   0  0  0  0  0  0  0  0  0  0  0  0
   -0.7500    1.2990    0.0000 C   0  0  0  0  0  0  0  0  0  0  0  0
   -1.5000    0.0000    0.0000 C   0  0  0  0  0  0  0  0  0  0  0  0
   -0.7500   -1.2990    0.0000 N   0  0  0  0  0  0  0  0  0  0  0  0
   -1.5000    7.7942    0.0000 C   0  0  0  0  0  0  0  0  0  0  0  0
   -0.7500    6.4952    0.0000 C   0  0  0  0  0  0  0  0  0  0  0  0
   -1.5000    5.1962    0.0000 O   0  0  0  0  0  0  0  0  0  0  0  0
   -0.7500    3.8971    0.0000 C   0  0  0  0  0  0  0  0  0  0  0  0
   -1.5000    2.5981    0.0000 C   0  0  0  0  0  0  0  0  0  0  0  0
    0.7500   -3.8971    0.0000 C   0  0  0  0  0  0  0  0  0  0  0  0
    1.5000   -2.5981    0.0000 N   0  0  0  0  0  0  0  0  0  0  0  0
    0.8899   -6.5665    0.0000 C   0  0  0  0  0  0  0  0  0  0  0  0
    2.0046   -7.5702    0.0000 C   0  0  0  0  0  0  0  0  0  0  0  0
    3.3037   -6.8202    0.0000 C   0  0  0  0  0  0  0  0  0  0  0  0
    2.9918   -5.3529    0.0000 N   0  0  0  0  0  0  0  0  0  0  0  0
    1.5000   -5.1962    0.0000 N   0  0  0  0  0  0  0  0  0  0  0  0
    7.4146   -8.6505    0.0000 N   0  0  0  0  0  0  0  0  0  0  0  0
    7.2578   -7.1587    0.0000 C   0  0  0  0  0  0  0  0  0  0  0  0
    5.8875   -6.5486    0.0000 C   0  0  0  0  0  0  0  0  0  0  0  0
    4.6740   -7.4303    0.0000 C   0  0  0  0  0  0  0  0  0  0  0  0
    4.8308   -8.9221    0.0000 C   0  0  0  0  0  0  0  0  0  0  0  0
    6.2011   -9.5322    0.0000 C   0  0  0  0  0  0  0  0  0  0  0  0
   11.5256  -10.4808    0.0000 N   0  0  0  0  0  0  0  0  0  0  0  0
   10.3120  -11.3625    0.0000 C   0  0  0  0  0  0  0  0  0  0  0  0
    8.9417  -10.7524    0.0000 C   0  0  0  0  0  0  0  0  0  0  0  0
    8.7849   -9.2606    0.0000 N   0  0  0  0  0  0  0  0  0  0  0  0
    9.9984   -8.3789    0.0000 C   0  0  0  0  0  0  0  0  0  0  0  0
   11.3688   -8.9890    0.0000 C   0  0  0  0  0  0  0  0  0  0  0  0
   12.8959  -11.0909    0.0000 C   0  0  0  0  0  0  0  0  0  0  0  0
   -1.0409   -8.3049    0.0000 C   0  0  0  0  0  0  0  0  0  0  0  0
   -0.5773   -6.8783    0.0000 O   0  0  0  0  0  0  0  0  0  0  0  0
  1  2  1  0
  2  3  1  0
  2  4  1  0
  4  5  2  0
  4  6  2  0
  7  8  1  0
  8  9  2  0
  9 10  1  0
 10 11  1  0
 11  7  2  0
 13 14  2  0
 14 15  1  0
 15 16  2  0
 16 17  1  0
 17 18  2  0
 18 13  1  0
 19 20  1  0
 20 21  1  0
 21 22  1  0
 22 23  1  0
 24 25  1  0
 26 27  2  0
 27 28  1  0
 28 29  2  0
 29 30  1  0
 30 26  1  0
 31 32  1  0
 32 33  1  0
 33 34  1  0
 34 35  1  0
 35 36  1  0
 36 31  1  0
 37 38  1  0
 38 39  1  0
 39 40  1  0
 40 41  1  0
 41 42  1  0
 42 37  1  0
 44 45  1  0
  4 11  1  0
  7 12  1  0
 12 17  1  0
 16 23  1  0
 13 25  1  0
 24 30  1  0
 28 34  1  0
 31 40  1  0
 37 43  1  0
 26 45  1  0
M  END

