
     RDKit          2D

 33 36  0  0  0  0  0  0  0  0999 V2000
   -2.2500   -3.8971    0.0000 N   0  0  0  0  0  0  0  0  0  0  0  0
   -1.5000   -2.5981    0.0000 C   0  0  0  0  0  0  0  0  0  0  0  0
    0.7500   -1.2990    0.0000 C   0  0  0  0  0  0  0  0  0  0  0  0
    1.5000    0.0000    0.0000 N   0  0  0  0  0  0  0  0  0  0  0  0
    0.7500    1.2990    0.0000 C   0  0  0  0  0  0  0  0  0  0  0  0
   -0.7500    1.2990    0.0000 N   0  0  0  0  0  0  0  0  0  0  0  0
   -1.5000    0.0000    0.0000 C   0  0  0  0  0  0  0  0  0  0  0  0
   -0.7500   -1.2990    0.0000 C   0  0  0  0  0  0  0  0  0  0  0  0
   -3.0000    0.0000    0.0000 N   0  0  0  0  0  0  0  0  0  0  0  0
    3.0000   -5.1962    0.0000 C   0  0  0  0  0  0  0  0  0  0  0  0
    3.7500   -3.8971    0.0000 C   0  0  0  0  0  0  0  0  0  0  0  0
    3.0000   -2.5981    0.0000 C   0  0  0  0  0  0  0  0  0  0  0  0
    1.5000   -2.5981    0.0000 N   0  0  0  0  0  0  0  0  0  0  0  0
    0.7500   -3.8971    0.0000 C   0  0  0  0  0  0  0  0  0  0  0  0
    1.5000   -5.1962    0.0000 C   0  0  0  0  0  0  0  0  0  0  0  0
    3.1399   -7.8655    0.0000 N   0  0  0  0  0  0  0  0  0  0  0  0
    4.2546   -8.8692    0.0000 C   0  0  0  0  0  0  0  0  0  0  0  0
    5.5537   -8.1192    0.0000 C   0  0  0  0  0  0  0  0  0  0  0  0
    5.2418   -6.6520    0.0000 N   0  0  0  0  0  0  0  0  0  0  0  0
    3.7500   -6.4952    0.0000 C   0  0  0  0  0  0  0  0  0  0  0  0
    9.6646   -9.9495    0.0000 C   0  0  0  0  0  0  0  0  0  0  0  0
    8.4511  -10.8312    0.0000 C   0  0  0  0  0  0  0  0  0  0  0  0
    7.0808  -10.2211    0.0000 C   0  0  0  0  0  0  0  0  0  0  0  0
    6.9240   -8.7293    0.0000 C   0  0  0  0  0  0  0  0  0  0  0  0
    8.1375   -7.8476    0.0000 C   0  0  0  0  0  0  0  0  0  0  0  0
    9.5078   -8.4577    0.0000 C   0  0  0  0  0  0  0  0  0  0  0  0
   11.3485  -13.5432    0.0000 F   0  0  0  0  0  0  0  0  0  0  0  0
   11.1917  -12.0514    0.0000 C   0  0  0  0  0  0  0  0  0  0  0  0
   12.6835  -11.8946    0.0000 F   0  0  0  0  0  0  0  0  0  0  0  0
    9.6999  -12.2082    0.0000 F   0  0  0  0  0  0  0  0  0  0  0  0
   11.0349  -10.5596    0.0000 C   0  0  0  0  0  0  0  0  0  0  0  0
   12.2484   -9.6779    0.0000 F   0  0  0  0  0  0  0  0  0  0  0  0
    1.6727   -8.1774    0.0000 C   0  0  0  0  0  0  0  0  0  0  0  0
  1  2  3  0
  3  4  2  0
  4  5  1  0
  5  6  2  0
  6  7  1  0
  7  8  2  0
  8  3  1  0
 10 11  1  0
 11 12  1  0
 12 13  1  0
 13 14  1  0
 14 15  1  0
 15 10  1  0
 16 17  1  0
 17 18  2  0
 18 19  1  0
 19 20  2  0
 20 16  1  0
 21 22  2  0
 22 23  1  0
 23 24  2  0
 24 25  1  0
 25 26  2  0
 26 21  1  0
 27 28  1  0
 28 29  1  0
 28 30  1  0
 28 31  1  0
  2  8  1  0
  7  9  1  0
  3 13  1  0
 10 20  1  0
 18 24  1  0
 21 31  1  0
 31 32  1  1
 16 33  1  0
M  END

