
     RDKit          2D

 42 47  0  0  0  0  0  0  0  0999 V2000
   -2.6491   -0.9642    0.0000 F   0  0  0  0  0  0  0  0  0  0  0  0
    0.7500   -1.2990    0.0000 N   0  0  0  0  0  0  0  0  0  0  0  0
    1.5000    0.0000    0.0000 C   0  0  0  0  0  0  0  0  0  0  0  0
    0.7500    1.2990    0.0000 C   0  0  0  0  0  0  0  0  0  0  0  0
   -0.7500    1.2990    0.0000 O   0  0  0  0  0  0  0  0  0  0  0  0
   -1.5000    0.0000    0.0000 C   0  0  0  0  0  0  0  0  0  0  0  0
   -0.7500   -1.2990    0.0000 C   0  0  0  0  0  0  0  0  0  0  0  0
   -2.6491    0.9642    0.0000 F   0  0  0  0  0  0  0  0  0  0  0  0
    2.7990   -3.3481    0.0000 C   0  0  0  0  0  0  0  0  0  0  0  0
    1.5000   -4.0981    0.0000 C   0  0  0  0  0  0  0  0  0  0  0  0
    1.5000   -2.5981    0.0000 C   0  0  0  0  0  0  0  0  0  0  0  0
    5.1807   -2.1346    0.0000 C   0  0  0  0  0  0  0  0  0  0  0  0
    6.6073   -2.5981    0.0000 N   0  0  0  0  0  0  0  0  0  0  0  0
    6.6073   -4.0981    0.0000 C   0  0  0  0  0  0  0  0  0  0  0  0
    5.1807   -4.5616    0.0000 C   0  0  0  0  0  0  0  0  0  0  0  0
    4.2990   -3.3481    0.0000 N   0  0  0  0  0  0  0  0  0  0  0  0
   10.4047   -5.2513    0.0000 C   0  0  0  0  0  0  0  0  0  0  0  0
   10.2479   -6.7431    0.0000 C   0  0  0  0  0  0  0  0  0  0  0  0
    8.8776   -7.3532    0.0000 C   0  0  0  0  0  0  0  0  0  0  0  0
    7.6640   -6.4715    0.0000 C   0  0  0  0  0  0  0  0  0  0  0  0
    7.8208   -4.9798    0.0000 C   0  0  0  0  0  0  0  0  0  0  0  0
    9.1911   -4.3696    0.0000 C   0  0  0  0  0  0  0  0  0  0  0  0
    4.9234   -7.6917    0.0000 F   0  0  0  0  0  0  0  0  0  0  0  0
    6.2937   -7.0816    0.0000 C   0  0  0  0  0  0  0  0  0  0  0  0
    6.9038   -8.4520    0.0000 F   0  0  0  0  0  0  0  0  0  0  0  0
    5.6836   -5.7113    0.0000 F   0  0  0  0  0  0  0  0  0  0  0  0
   11.7750   -4.6412    0.0000 F   0  0  0  0  0  0  0  0  0  0  0  0
    3.7901    2.1452    0.0000 N   0  0  0  0  0  0  0  0  0  0  0  0
    2.7864    1.0305    0.0000 C   0  0  0  0  0  0  0  0  0  0  0  0
    3.2500   -0.3961    0.0000 C   0  0  0  0  0  0  0  0  0  0  0  0
    4.7172   -0.7080    0.0000 C   0  0  0  0  0  0  0  0  0  0  0  0
    5.7209    0.4068    0.0000 C   0  0  0  0  0  0  0  0  0  0  0  0
    5.2574    1.8333    0.0000 C   0  0  0  0  0  0  0  0  0  0  0  0
    1.8594    3.8837    0.0000 C   0  0  0  0  0  0  0  0  0  0  0  0
    1.3959    5.3102    0.0000 C   0  0  0  0  0  0  0  0  0  0  0  0
    2.3996    6.4250    0.0000 N   0  0  0  0  0  0  0  0  0  0  0  0
    3.8668    6.1131    0.0000 C   0  0  0  0  0  0  0  0  0  0  0  0
    4.3303    4.6865    0.0000 N   0  0  0  0  0  0  0  0  0  0  0  0
    3.3266    3.5718    0.0000 C   0  0  0  0  0  0  0  0  0  0  0  0
   -0.0714    5.6221    0.0000 I   0  0  0  0  0  0  0  0  0  0  0  0
   -0.6115    3.0808    0.0000 C   0  0  0  0  0  0  0  0  0  0  0  0
    0.8557    2.7689    0.0000 C   0  0  0  0  0  0  0  0  0  0  0  0
  2  3  1  0
  3  4  1  0
  4  5  1  0
  5  6  1  0
  6  7  1  0
  7  2  1  0
  9 10  1  0
 10 11  1  0
 11  9  1  0
 12 13  2  0
 13 14  1  0
 14 15  2  0
 15 16  1  0
 16 12  1  0
 17 18  2  0
 18 19  1  0
 19 20  2  0
 20 21  1  0
 21 22  2  0
 22 17  1  0
 23 24  1  0
 24 25  1  0
 24 26  1  0
 28 29  1  0
 29 30  1  0
 30 31  1  0
 31 32  1  0
 32 33  1  0
 33 28  1  0
 34 35  2  0
 35 36  1  0
 36 37  2  0
 37 38  1  0
 38 39  2  0
 39 34  1  0
 41 42  1  0
  1  6  1  0
  6  8  1  0
  2 11  1  0
  9 16  1  0
 14 21  1  0
 20 24  1  0
 17 27  1  0
 12 31  1  0
 28 39  1  0
 35 40  1  0
 34 42  1  0
M  ISO  1   1  18
M  END

