
     RDKit          2D

 28 32  0  0  0  0  0  0  0  0999 V2000
   -0.7500    3.8971    0.0000 C   0  0  0  0  0  0  0  0  0  0  0  0
   -1.5000    2.5981    0.0000 N   0  0  0  0  0  0  0  0  0  0  0  0
   -0.0000   -3.6073    0.0000 C   0  0  0  0  0  0  0  0  0  0  0  0
    1.2135   -2.7256    0.0000 O   0  0  0  0  0  0  0  0  0  0  0  0
    0.7500   -1.2990    0.0000 C   0  0  0  0  0  0  0  0  0  0  0  0
    1.5000    0.0000    0.0000 C   0  0  0  0  0  0  0  0  0  0  0  0
    0.7500    1.2990    0.0000 C   0  0  0  0  0  0  0  0  0  0  0  0
   -0.7500    1.2990    0.0000 C   0  0  0  0  0  0  0  0  0  0  0  0
   -1.5000    0.0000    0.0000 C   0  0  0  0  0  0  0  0  0  0  0  0
   -0.7500   -1.2990    0.0000 C   0  0  0  0  0  0  0  0  0  0  0  0
   -1.2135   -2.7256    0.0000 O   0  0  0  0  0  0  0  0  0  0  0  0
   -0.9872   -7.3245    0.0000 C   0  0  0  0  0  0  0  0  0  0  0  0
   -2.1019   -6.3208    0.0000 C   0  0  0  0  0  0  0  0  0  0  0  0
   -1.4918   -4.9505    0.0000 O   0  0  0  0  0  0  0  0  0  0  0  0
   -0.0000   -5.1073    0.0000 C   0  0  0  0  0  0  0  0  0  0  0  0
    0.3119   -6.5745    0.0000 O   0  0  0  0  0  0  0  0  0  0  0  0
    1.4918   -4.9505    0.0000 C   0  0  0  0  0  0  0  0  0  0  0  0
    2.3735   -6.1640    0.0000 C   0  0  0  0  0  0  0  0  0  0  0  0
    3.8652   -6.0072    0.0000 C   0  0  0  0  0  0  0  0  0  0  0  0
    4.4753   -4.6369    0.0000 C   0  0  0  0  0  0  0  0  0  0  0  0
    3.5937   -3.4234    0.0000 C   0  0  0  0  0  0  0  0  0  0  0  0
    2.1019   -3.5802    0.0000 N   0  0  0  0  0  0  0  0  0  0  0  0
   -0.0872  -11.1898    0.0000 C   0  0  0  0  0  0  0  0  0  0  0  0
   -1.4575  -11.7999    0.0000 C   0  0  0  0  0  0  0  0  0  0  0  0
   -2.6711  -10.9182    0.0000 C   0  0  0  0  0  0  0  0  0  0  0  0
   -2.5143   -9.4264    0.0000 C   0  0  0  0  0  0  0  0  0  0  0  0
   -1.1440   -8.8163    0.0000 N   0  0  0  0  0  0  0  0  0  0  0  0
    0.0696   -9.6980    0.0000 C   0  0  0  0  0  0  0  0  0  0  0  0
  1  2  1  0
  3  4  1  0
  4  5  1  0
  5  6  2  0
  6  7  1  0
  7  8  2  0
  8  9  1  0
  9 10  2  0
 10 11  1  0
 11  3  1  0
 10  5  1  0
 12 13  1  0
 13 14  1  0
 14 15  1  0
 15 16  1  0
 16 12  1  0
 17 18  2  0
 18 19  1  0
 19 20  2  0
 20 21  1  0
 21 22  2  0
 22 17  1  0
 23 24  1  0
 24 25  1  0
 25 26  1  0
 26 27  1  0
 27 28  1  0
 28 23  1  0
  2  8  1  0
 15  3  1  1
 15 17  1  0
 12 27  1  1
M  END

