
     RDKit          2D

 31 35  0  0  0  0  0  0  0  0999 V2000
   -6.3786    2.0280    0.0000 C   0  0  0  0  0  0  0  0  0  0  0  0
   -5.4969    0.8144    0.0000 O   0  0  0  0  0  0  0  0  0  0  0  0
   -4.0051    0.9712    0.0000 C   0  0  0  0  0  0  0  0  0  0  0  0
   -3.1235   -0.2423    0.0000 C   0  0  0  0  0  0  0  0  0  0  0  0
   -1.6317   -0.0855    0.0000 N   0  0  0  0  0  0  0  0  0  0  0  0
   -1.0216    1.2848    0.0000 C   0  0  0  0  0  0  0  0  0  0  0  0
   -0.7500   -1.2990    0.0000 N   0  0  0  0  0  0  0  0  0  0  0  0
    0.7500   -1.2990    0.0000 C   0  0  0  0  0  0  0  0  0  0  0  0
    1.2135   -2.7256    0.0000 C   0  0  0  0  0  0  0  0  0  0  0  0
    2.6401   -3.1891    0.0000 C   0  0  0  0  0  0  0  0  0  0  0  0
    2.9520   -1.7219    0.0000 C   0  0  0  0  0  0  0  0  0  0  0  0
    1.9483   -0.6072    0.0000 C   0  0  0  0  0  0  0  0  0  0  0  0
    2.6983    0.6918    0.0000 C   0  0  0  0  0  0  0  0  0  0  0  0
    2.2348    2.1184    0.0000 C   0  0  0  0  0  0  0  0  0  0  0  0
    3.2385    3.2331    0.0000 C   0  0  0  0  0  0  0  0  0  0  0  0
    4.7057    2.9213    0.0000 C   0  0  0  0  0  0  0  0  0  0  0  0
    5.1692    1.4947    0.0000 C   0  0  0  0  0  0  0  0  0  0  0  0
    4.1655    0.3800    0.0000 C   0  0  0  0  0  0  0  0  0  0  0  0
    4.3223   -1.1118    0.0000 N   0  0  0  0  0  0  0  0  0  0  0  0
    5.6213   -1.8618    0.0000 Cl  0  0  0  0  0  0  0  0  0  0  0  0
    4.1319   -3.3459    0.0000 O   0  0  0  0  0  0  0  0  0  0  0  0
    4.4438   -4.8132    0.0000 C   0  0  0  0  0  0  0  0  0  0  0  0
    3.1447   -5.5632    0.0000 C   0  0  0  0  0  0  0  0  0  0  0  0
    2.9879   -7.0549    0.0000 C   0  0  0  0  0  0  0  0  0  0  0  0
    2.0300   -4.5595    0.0000 O   0  0  0  0  0  0  0  0  0  0  0  0
   -0.0000   -3.6073    0.0000 C   0  0  0  0  0  0  0  0  0  0  0  0
   -0.1568   -5.0991    0.0000 C   0  0  0  0  0  0  0  0  0  0  0  0
   -1.5271   -5.7092    0.0000 C   0  0  0  0  0  0  0  0  0  0  0  0
   -2.7406   -4.8275    0.0000 C   0  0  0  0  0  0  0  0  0  0  0  0
   -2.5838   -3.3357    0.0000 C   0  0  0  0  0  0  0  0  0  0  0  0
   -1.2135   -2.7256    0.0000 C   0  0  0  0  0  0  0  0  0  0  0  0
  1  2  1  0
  2  3  1  0
  3  4  1  0
  4  5  1  0
  5  6  1  0
  5  7  1  0
  7  8  1  0
  9  8  1  1
  9 10  1  0
 10 11  1  0
 11 12  1  6
 12 13  1  0
 13 14  2  0
 14 15  1  0
 15 16  2  0
 16 17  1  0
 17 18  2  0
 18 19  1  0
 19 20  1  0
 10 21  1  6
 21 22  1  0
 22 23  1  0
 23 24  1  6
 23 25  1  0
  9 26  1  0
 26 27  2  0
 27 28  1  0
 28 29  2  0
 29 30  1  0
 30 31  2  0
 31  7  1  0
 25 10  1  0
 31 26  1  0
 19 11  1  0
 18 13  1  0
M  END

