
     RDKit          2D

 41 47  0  0  0  0  0  0  0  0999 V2000
   -7.7765   -7.6668    0.0000 C   0  0  0  0  0  0  0  0  0  0  0  0
   -9.2437   -7.9787    0.0000 C   0  0  0  0  0  0  0  0  0  0  0  0
   -9.7072   -9.4053    0.0000 C   0  0  0  0  0  0  0  0  0  0  0  0
   -8.7035  -10.5200    0.0000 C   0  0  0  0  0  0  0  0  0  0  0  0
   -7.2363  -10.2081    0.0000 C   0  0  0  0  0  0  0  0  0  0  0  0
   -6.7728   -8.7815    0.0000 C   0  0  0  0  0  0  0  0  0  0  0  0
   -7.3130   -6.2402    0.0000 C   0  0  0  0  0  0  0  0  0  0  0  0
   -8.1947   -5.0267    0.0000 N   0  0  0  0  0  0  0  0  0  0  0  0
   -7.3130   -3.8132    0.0000 C   0  0  0  0  0  0  0  0  0  0  0  0
   -7.7765   -2.3866    0.0000 O   0  0  0  0  0  0  0  0  0  0  0  0
   -5.8864   -4.2767    0.0000 N   0  0  0  0  0  0  0  0  0  0  0  0
   -5.8864   -5.7767    0.0000 C   0  0  0  0  0  0  0  0  0  0  0  0
   -4.6729   -6.6584    0.0000 O   0  0  0  0  0  0  0  0  0  0  0  0
   -2.2458   -1.6317    0.0000 C   0  0  0  0  0  0  0  0  0  0  0  0
   -3.6161   -1.0216    0.0000 C   0  0  0  0  0  0  0  0  0  0  0  0
   -4.8297   -1.9033    0.0000 C   0  0  0  0  0  0  0  0  0  0  0  0
   -4.6729   -3.3950    0.0000 C   0  0  0  0  0  0  0  0  0  0  0  0
   -3.3025   -4.0051    0.0000 C   0  0  0  0  0  0  0  0  0  0  0  0
   -2.0890   -3.1235    0.0000 C   0  0  0  0  0  0  0  0  0  0  0  0
   -1.8351    3.2209    0.0000 C   0  0  0  0  0  0  0  0  0  0  0  0
   -0.4086    3.6844    0.0000 C   0  0  0  0  0  0  0  0  0  0  0  0
    0.7062    2.6807    0.0000 C   0  0  0  0  0  0  0  0  0  0  0  0
    0.3943    1.2135    0.0000 N   0  0  0  0  0  0  0  0  0  0  0  0
    1.2760    0.0000    0.0000 N   0  0  0  0  0  0  0  0  0  0  0  0
    0.3943   -1.2135    0.0000 C   0  0  0  0  0  0  0  0  0  0  0  0
   -1.0323   -0.7500    0.0000 C   0  0  0  0  0  0  0  0  0  0  0  0
   -1.0323    0.7500    0.0000 C   0  0  0  0  0  0  0  0  0  0  0  0
   -2.1470    1.7537    0.0000 N   0  0  0  0  0  0  0  0  0  0  0  0
    2.1328    3.1443    0.0000 C   0  0  0  0  0  0  0  0  0  0  0  0
    3.2475    2.1406    0.0000 C   0  0  0  0  0  0  0  0  0  0  0  0
    4.6741    2.6041    0.0000 C   0  0  0  0  0  0  0  0  0  0  0  0
    4.9859    4.0713    0.0000 C   0  0  0  0  0  0  0  0  0  0  0  0
    3.8712    5.0750    0.0000 N   0  0  0  0  0  0  0  0  0  0  0  0
    2.4446    4.6115    0.0000 C   0  0  0  0  0  0  0  0  0  0  0  0
   -4.3764    3.7611    0.0000 C   0  0  0  0  0  0  0  0  0  0  0  0
   -5.4912    4.7648    0.0000 N   0  0  0  0  0  0  0  0  0  0  0  0
   -5.1793    6.2320    0.0000 C   0  0  0  0  0  0  0  0  0  0  0  0
   -3.7527    6.6955    0.0000 C   0  0  0  0  0  0  0  0  0  0  0  0
   -2.6380    5.6918    0.0000 C   0  0  0  0  0  0  0  0  0  0  0  0
   -2.9499    4.2246    0.0000 C   0  0  0  0  0  0  0  0  0  0  0  0
   -4.6883    2.2939    0.0000 N   0  0  0  0  0  0  0  0  0  0  0  0
  1  2  2  0
  2  3  1  0
  3  4  2  0
  4  5  1  0
  5  6  2  0
  6  1  1  0
  7  8  1  0
  8  9  1  0
  9 10  2  0
  9 11  1  0
 11 12  1  0
 12 13  2  0
 12  7  1  0
 14 15  2  0
 15 16  1  0
 16 17  2  0
 17 18  1  0
 18 19  2  0
 19 14  1  0
 20 21  1  0
 21 22  2  0
 22 23  1  0
 23 24  1  0
 24 25  2  0
 25 26  1  0
 26 27  2  0
 27 28  1  0
 28 20  2  0
 27 23  1  0
 29 30  2  0
 30 31  1  0
 31 32  2  0
 32 33  1  0
 33 34  2  0
 34 29  1  0
 35 36  2  0
 36 37  1  0
 37 38  2  0
 38 39  1  0
 39 40  2  0
 40 35  1  0
  1  7  1  0
 11 17  1  0
 14 26  1  0
 22 29  1  0
 20 40  1  0
 35 41  1  0
M  END

