
     RDKit          2D

 35 39  0  0  0  0  0  0  0  0999 V2000
    6.3400    1.3824    0.0000 C   0  0  0  0  0  0  0  0  0  0  0  0
    7.0900    0.0834    0.0000 C   0  0  0  0  0  0  0  0  0  0  0  0
    8.5900    0.0834    0.0000 C   0  0  0  0  0  0  0  0  0  0  0  0
    9.3400    1.3824    0.0000 C   0  0  0  0  0  0  0  0  0  0  0  0
    8.5900    2.6814    0.0000 C   0  0  0  0  0  0  0  0  0  0  0  0
    7.0900    2.6814    0.0000 C   0  0  0  0  0  0  0  0  0  0  0  0
    4.8400    1.3824    0.0000 C   0  0  0  0  0  0  0  0  0  0  0  0
    3.4305    1.8954    0.0000 C   0  0  0  0  0  0  0  0  0  0  0  0
    4.5796    2.8596    0.0000 C   0  0  0  0  0  0  0  0  0  0  0  0
    3.1700   -0.6078    0.0000 C   0  0  0  0  0  0  0  0  0  0  0  0
    2.9095   -2.0850    0.0000 C   0  0  0  0  0  0  0  0  0  0  0  0
    4.0586   -3.0492    0.0000 C   0  0  0  0  0  0  0  0  0  0  0  0
    5.4681   -2.5362    0.0000 C   0  0  0  0  0  0  0  0  0  0  0  0
    5.7286   -1.0590    0.0000 C   0  0  0  0  0  0  0  0  0  0  0  0
    4.5796   -0.0948    0.0000 C   0  0  0  0  0  0  0  0  0  0  0  0
    8.0268   -2.9873    0.0000 C   0  0  0  0  0  0  0  0  0  0  0  0
    9.1758   -3.9515    0.0000 N   0  0  0  0  0  0  0  0  0  0  0  0
    8.9153   -5.4287    0.0000 C   0  0  0  0  0  0  0  0  0  0  0  0
    7.5058   -5.9418    0.0000 N   0  0  0  0  0  0  0  0  0  0  0  0
    6.3567   -4.9776    0.0000 C   0  0  0  0  0  0  0  0  0  0  0  0
    6.6172   -3.5004    0.0000 C   0  0  0  0  0  0  0  0  0  0  0  0
    2.3886   -5.0395    0.0000 C   0  0  0  0  0  0  0  0  0  0  0  0
    2.1281   -6.5167    0.0000 C   0  0  0  0  0  0  0  0  0  0  0  0
    3.2772   -7.4809    0.0000 C   0  0  0  0  0  0  0  0  0  0  0  0
    4.6867   -6.9678    0.0000 C   0  0  0  0  0  0  0  0  0  0  0  0
    4.9472   -5.4906    0.0000 C   0  0  0  0  0  0  0  0  0  0  0  0
    3.7981   -4.5264    0.0000 C   0  0  0  0  0  0  0  0  0  0  0  0
    5.8358   -7.9320    0.0000 F   0  0  0  0  0  0  0  0  0  0  0  0
   -0.1700   -4.5883    0.0000 N   0  0  0  0  0  0  0  0  0  0  0  0
    1.2395   -4.0753    0.0000 C   0  0  0  0  0  0  0  0  0  0  0  0
    1.5000   -2.5981    0.0000 O   0  0  0  0  0  0  0  0  0  0  0  0
    9.6968   -0.9971    0.0000 O   0  0  0  0  0  0  0  0  0  0  0  0
    8.2872   -1.5101    0.0000 C   0  0  0  0  0  0  0  0  0  0  0  0
    0.6114   -0.1567    0.0000 C   0  0  0  0  0  0  0  0  0  0  0  0
    2.0209    0.3563    0.0000 O   0  0  0  0  0  0  0  0  0  0  0  0
  1  2  2  0
  2  3  1  0
  3  4  2  0
  4  5  1  0
  5  6  2  0
  6  1  1  0
  7  8  1  0
  8  9  1  0
  9  7  1  0
 10 11  2  0
 11 12  1  0
 12 13  2  0
 13 14  1  0
 14 15  2  0
 15 10  1  0
 16 17  2  0
 17 18  1  0
 18 19  2  0
 19 20  1  0
 20 21  2  0
 21 16  1  0
 22 23  2  0
 23 24  1  0
 24 25  2  0
 25 26  1  0
 26 27  2  0
 27 22  1  0
 29 30  1  0
 30 31  2  0
 32 33  1  0
 34 35  1  0
  1  7  1  0
  7 15  1  0
 13 21  1  0
 20 26  1  0
 25 28  1  0
 22 30  1  0
 16 33  1  0
 10 35  1  0
M  END

