
     RDKit          2D

 28 30  0  0  0  0  0  0  0  0999 V2000
    2.2844   -2.1766    0.0000 C   0  0  0  0  0  0  0  0  0  0  0  0
    0.8578   -2.6401    0.0000 C   0  0  0  0  0  0  0  0  0  0  0  0
   -0.5688   -3.1036    0.0000 C   0  0  0  0  0  0  0  0  0  0  0  0
    1.3213   -4.0667    0.0000 N   0  0  0  0  0  0  0  0  0  0  0  0
    0.3943    1.2135    0.0000 C   0  0  0  0  0  0  0  0  0  0  0  0
    1.2760    0.0000    0.0000 C   0  0  0  0  0  0  0  0  0  0  0  0
    0.3943   -1.2135    0.0000 C   0  0  0  0  0  0  0  0  0  0  0  0
   -1.0323   -0.7500    0.0000 O   0  0  0  0  0  0  0  0  0  0  0  0
   -1.0323    0.7500    0.0000 N   0  0  0  0  0  0  0  0  0  0  0  0
    2.2844    3.1036    0.0000 C   0  0  0  0  0  0  0  0  0  0  0  0
    2.2844    4.6036    0.0000 N   0  0  0  0  0  0  0  0  0  0  0  0
    0.8578    5.0672    0.0000 C   0  0  0  0  0  0  0  0  0  0  0  0
   -0.0239    3.8536    0.0000 S   0  0  0  0  0  0  0  0  0  0  0  0
    0.8578    2.6401    0.0000 C   0  0  0  0  0  0  0  0  0  0  0  0
    0.9345    9.0350    0.0000 C   0  0  0  0  0  0  0  0  0  0  0  0
    1.3980    7.6085    0.0000 C   0  0  0  0  0  0  0  0  0  0  0  0
    0.3943    6.4937    0.0000 C   0  0  0  0  0  0  0  0  0  0  0  0
   -1.0729    6.8056    0.0000 O   0  0  0  0  0  0  0  0  0  0  0  0
    3.4299    9.9930    0.0000 N   0  0  0  0  0  0  0  0  0  0  0  0
    4.0401   11.3633    0.0000 C   0  0  0  0  0  0  0  0  0  0  0  0
    2.9253   12.3670    0.0000 C   0  0  0  0  0  0  0  0  0  0  0  0
    1.6263   11.6170    0.0000 C   0  0  0  0  0  0  0  0  0  0  0  0
    1.9382   10.1498    0.0000 C   0  0  0  0  0  0  0  0  0  0  0  0
    4.4524   14.4689    0.0000 N   0  0  0  0  0  0  0  0  0  0  0  0
    3.0821   13.8588    0.0000 C   0  0  0  0  0  0  0  0  0  0  0  0
    1.8686   14.7404    0.0000 O   0  0  0  0  0  0  0  0  0  0  0  0
    4.1799    8.6939    0.0000 Br  0  0  0  0  0  0  0  0  0  0  0  0
    3.4979    2.2220    0.0000 C   0  0  0  0  0  0  0  0  0  0  0  0
  1  2  1  0
  2  3  1  0
  2  4  1  0
  5  6  1  0
  6  7  2  0
  7  8  1  0
  8  9  1  0
  9  5  2  0
 10 11  1  0
 11 12  2  0
 12 13  1  0
 13 14  1  0
 14 10  2  0
 15 16  1  0
 16 17  1  0
 17 18  1  1
 19 20  1  0
 20 21  1  0
 21 22  1  0
 22 23  1  0
 23 19  1  0
 24 25  1  0
 25 26  2  0
  2  7  1  0
  5 14  1  0
 12 17  1  0
 23 15  1  6
 21 25  1  1
 19 27  1  0
 10 28  1  0
M  END

