
     RDKit          2D

 36 40  0  0  0  0  0  0  0  0999 V2000
   -4.0819   -0.6918    0.0000 C   0  0  0  0  0  0  0  0  0  0  0  0
   -5.5085   -0.2283    0.0000 C   0  0  0  0  0  0  0  0  0  0  0  0
   -6.6232   -1.2320    0.0000 C   0  0  0  0  0  0  0  0  0  0  0  0
   -8.0498   -0.7685    0.0000 O   0  0  0  0  0  0  0  0  0  0  0  0
   -6.3114   -2.6992    0.0000 O   0  0  0  0  0  0  0  0  0  0  0  0
    1.5000    0.0000    0.0000 C   0  0  0  0  0  0  0  0  0  0  0  0
    0.7500   -1.2990    0.0000 C   0  0  0  0  0  0  0  0  0  0  0  0
   -0.7500   -1.2990    0.0000 C   0  0  0  0  0  0  0  0  0  0  0  0
   -1.5000    0.0000    0.0000 C   0  0  0  0  0  0  0  0  0  0  0  0
   -0.7500    1.2990    0.0000 C   0  0  0  0  0  0  0  0  0  0  0  0
    0.7500    1.2990    0.0000 C   0  0  0  0  0  0  0  0  0  0  0  0
   -1.7537    2.4138    0.0000 C   0  0  0  0  0  0  0  0  0  0  0  0
   -3.1240    1.8037    0.0000 C   0  0  0  0  0  0  0  0  0  0  0  0
   -2.9672    0.3119    0.0000 N   0  0  0  0  0  0  0  0  0  0  0  0
   -4.6955    6.2947    0.0000 C   0  0  0  0  0  0  0  0  0  0  0  0
   -3.9455    7.5938    0.0000 C   0  0  0  0  0  0  0  0  0  0  0  0
   -2.4455    7.5938    0.0000 C   0  0  0  0  0  0  0  0  0  0  0  0
   -1.6955    6.2947    0.0000 N   0  0  0  0  0  0  0  0  0  0  0  0
   -0.2283    5.9829    0.0000 N   0  0  0  0  0  0  0  0  0  0  0  0
   -0.0715    4.4911    0.0000 C   0  0  0  0  0  0  0  0  0  0  0  0
   -1.4418    3.8810    0.0000 C   0  0  0  0  0  0  0  0  0  0  0  0
   -2.4455    4.9957    0.0000 C   0  0  0  0  0  0  0  0  0  0  0  0
   -3.9455    4.9957    0.0000 N   0  0  0  0  0  0  0  0  0  0  0  0
   -1.6955    8.8928    0.0000 C   0  0  0  0  0  0  0  0  0  0  0  0
   -2.4455   10.1918    0.0000 C   0  0  0  0  0  0  0  0  0  0  0  0
   -1.6955   11.4909    0.0000 C   0  0  0  0  0  0  0  0  0  0  0  0
   -0.9455   12.7899    0.0000 N   0  0  0  0  0  0  0  0  0  0  0  0
   -6.1955    6.2947    0.0000 N   0  0  0  0  0  0  0  0  0  0  0  0
   -6.9455    7.5938    0.0000 C   0  0  0  0  0  0  0  0  0  0  0  0
   -8.2446    8.3438    0.0000 C   0  0  0  0  0  0  0  0  0  0  0  0
   -6.9455    9.0938    0.0000 C   0  0  0  0  0  0  0  0  0  0  0  0
    6.0000   -2.5981    0.0000 C   0  0  0  0  0  0  0  0  0  0  0  0
    5.2500   -1.2990    0.0000 C   0  0  0  0  0  0  0  0  0  0  0  0
    6.0000    0.0000    0.0000 O   0  0  0  0  0  0  0  0  0  0  0  0
    3.7500   -1.2990    0.0000 N   0  0  0  0  0  0  0  0  0  0  0  0
    3.0000    0.0000    0.0000 C   0  0  0  0  0  0  0  0  0  0  0  0
  1  2  1  0
  2  3  1  0
  3  4  2  0
  3  5  1  0
  6  7  2  0
  7  8  1  0
  8  9  2  0
  9 10  1  0
 10 11  2  0
 10 12  1  0
 12 13  2  0
 13 14  1  0
 11  6  1  0
 14  9  1  0
 15 16  1  0
 16 17  2  0
 17 18  1  0
 18 19  1  0
 19 20  2  0
 20 21  1  0
 21 22  2  0
 22 23  1  0
 23 15  2  0
 22 18  1  0
 24 25  1  0
 25 26  1  0
 26 27  3  0
 29 30  1  0
 30 31  1  0
 31 29  1  0
 32 33  1  0
 33 34  2  0
 33 35  1  0
 35 36  1  0
  1 14  1  0
 12 21  1  0
 17 24  1  0
 15 28  1  0
 28 29  1  0
  6 36  1  0
M  END

