
     RDKit          2D

 42 47  0  0  0  0  0  0  0  0999 V2000
   -4.1959    4.0667    0.0000 C   0  0  0  0  0  0  0  0  0  0  0  0
   -4.6594    2.6401    0.0000 C   0  0  0  0  0  0  0  0  0  0  0  0
   -5.1230    1.2135    0.0000 C   0  0  0  0  0  0  0  0  0  0  0  0
   -6.5495    0.7500    0.0000 C   0  0  0  0  0  0  0  0  0  0  0  0
   -7.7631    1.6317    0.0000 O   0  0  0  0  0  0  0  0  0  0  0  0
   -9.1334    1.0216    0.0000 C   0  0  0  0  0  0  0  0  0  0  0  0
  -10.3469    1.9033    0.0000 C   0  0  0  0  0  0  0  0  0  0  0  0
   -9.2902   -0.4702    0.0000 C   0  0  0  0  0  0  0  0  0  0  0  0
   -6.5495   -0.7500    0.0000 C   0  0  0  0  0  0  0  0  0  0  0  0
   -5.1230   -1.2135    0.0000 N   0  0  0  0  0  0  0  0  0  0  0  0
   -4.2413    0.0000    0.0000 N   0  0  0  0  0  0  0  0  0  0  0  0
   -2.7413    0.0000    0.0000 N   0  0  0  0  0  0  0  0  0  0  0  0
   -1.8596    1.2135    0.0000 C   0  0  0  0  0  0  0  0  0  0  0  0
   -0.4330    0.7500    0.0000 C   0  0  0  0  0  0  0  0  0  0  0  0
    0.8660    0.0000    0.0000 C   0  0  0  0  0  0  0  0  0  0  0  0
   -0.4330   -0.7500    0.0000 C   0  0  0  0  0  0  0  0  0  0  0  0
    0.1771   -2.1203    0.0000 C   0  0  0  0  0  0  0  0  0  0  0  0
   -0.7046   -3.3338    0.0000 C   0  0  0  0  0  0  0  0  0  0  0  0
   -0.0945   -4.7042    0.0000 C   0  0  0  0  0  0  0  0  0  0  0  0
   -0.9762   -5.9177    0.0000 C   0  0  0  0  0  0  0  0  0  0  0  0
   -2.4679   -5.7609    0.0000 C   0  0  0  0  0  0  0  0  0  0  0  0
   -3.3496   -6.9744    0.0000 C   0  0  0  0  0  0  0  0  0  0  0  0
   -4.8414   -6.8176    0.0000 O   0  0  0  0  0  0  0  0  0  0  0  0
   -5.4515   -5.4473    0.0000 C   0  0  0  0  0  0  0  0  0  0  0  0
   -4.0812   -4.8372    0.0000 F   0  0  0  0  0  0  0  0  0  0  0  0
   -6.8218   -6.0574    0.0000 F   0  0  0  0  0  0  0  0  0  0  0  0
   -6.0616   -4.0770    0.0000 C   0  0  0  0  0  0  0  0  0  0  0  0
   -5.1799   -2.8635    0.0000 F   0  0  0  0  0  0  0  0  0  0  0  0
   -7.5534   -3.9202    0.0000 F   0  0  0  0  0  0  0  0  0  0  0  0
   -2.7395   -8.3447    0.0000 C   0  0  0  0  0  0  0  0  0  0  0  0
   -1.2477   -8.5015    0.0000 C   0  0  0  0  0  0  0  0  0  0  0  0
   -0.3661   -7.2880    0.0000 N   0  0  0  0  0  0  0  0  0  0  0  0
    1.3973   -4.8610    0.0000 C   0  0  0  0  0  0  0  0  0  0  0  0
    2.2790   -3.6474    0.0000 C   0  0  0  0  0  0  0  0  0  0  0  0
    1.6689   -2.2771    0.0000 C   0  0  0  0  0  0  0  0  0  0  0  0
    2.5506   -1.0636    0.0000 C   0  0  0  0  0  0  0  0  0  0  0  0
    4.0423   -1.2204    0.0000 C   0  0  0  0  0  0  0  0  0  0  0  0
    4.9240   -0.0069    0.0000 N   0  0  0  0  0  0  0  0  0  0  0  0
    6.4055    0.2278    0.0000 C   0  0  0  0  0  0  0  0  0  0  0  0
    6.1709    1.7093    0.0000 C   0  0  0  0  0  0  0  0  0  0  0  0
    4.6894    1.4747    0.0000 C   0  0  0  0  0  0  0  0  0  0  0  0
   -1.8596   -1.2135    0.0000 C   0  0  0  0  0  0  0  0  0  0  0  0
  1  2  3  0
  2  3  1  0
  3  4  2  0
  4  5  1  0
  5  6  1  0
  6  7  1  0
  6  8  1  0
  4  9  1  0
  9 10  2  0
 10 11  1  0
 11 12  1  0
 12 13  1  0
 14 13  1  1
 14 15  1  0
 15 16  1  0
 16 17  1  6
 17 18  2  0
 18 19  1  0
 19 20  1  0
 20 21  2  0
 21 22  1  0
 22 23  1  0
 23 24  1  0
 24 25  1  0
 24 26  1  0
 24 27  1  0
 27 28  1  0
 27 29  1  0
 22 30  2  0
 30 31  1  0
 31 32  2  0
 19 33  2  0
 33 34  1  0
 34 35  2  0
 35 36  1  0
 36 37  1  0
 37 38  1  0
 38 39  1  0
 39 40  1  0
 40 41  1  0
 16 42  1  0
 11  3  1  0
 42 12  1  0
 16 14  1  0
 35 17  1  0
 41 38  1  0
 32 20  1  0
M  END

