
     RDKit          2D

 30 33  0  0  0  0  0  0  0  0999 V2000
   -1.0677   14.9113    0.0000 C   0  0  0  0  0  0  0  0  0  0  0  0
   -1.2244   13.4195    0.0000 C   0  0  0  0  0  0  0  0  0  0  0  0
   -0.0109   12.5379    0.0000 N   0  0  0  0  0  0  0  0  0  0  0  0
    1.3594   13.1480    0.0000 C   0  0  0  0  0  0  0  0  0  0  0  0
   -1.1549    8.8289    0.0000 C   0  0  0  0  0  0  0  0  0  0  0  0
   -1.4668   10.2961    0.0000 C   0  0  0  0  0  0  0  0  0  0  0  0
   -0.1677   11.0461    0.0000 C   0  0  0  0  0  0  0  0  0  0  0  0
    0.9470   10.0424    0.0000 O   0  0  0  0  0  0  0  0  0  0  0  0
    0.3369    8.6721    0.0000 N   0  0  0  0  0  0  0  0  0  0  0  0
   -3.6504    7.8709    0.0000 C   0  0  0  0  0  0  0  0  0  0  0  0
   -4.2605    6.5006    0.0000 N   0  0  0  0  0  0  0  0  0  0  0  0
   -3.1458    5.4969    0.0000 C   0  0  0  0  0  0  0  0  0  0  0  0
   -1.8467    6.2469    0.0000 S   0  0  0  0  0  0  0  0  0  0  0  0
   -2.1586    7.7141    0.0000 C   0  0  0  0  0  0  0  0  0  0  0  0
   -4.6729    3.3950    0.0000 O   0  0  0  0  0  0  0  0  0  0  0  0
   -3.3025    4.0051    0.0000 C   0  0  0  0  0  0  0  0  0  0  0  0
   -2.0890    3.1235    0.0000 C   0  0  0  0  0  0  0  0  0  0  0  0
   -2.2458    1.6317    0.0000 C   0  0  0  0  0  0  0  0  0  0  0  0
   -2.0890    1.6235    0.0000 N   0  0  0  0  0  0  0  0  0  0  0  0
   -0.7187    2.2336    0.0000 C   0  0  0  0  0  0  0  0  0  0  0  0
    0.3943    1.2135    0.0000 C   0  0  0  0  0  0  0  0  0  0  0  0
    1.2760    0.0000    0.0000 C   0  0  0  0  0  0  0  0  0  0  0  0
    0.3943   -1.2135    0.0000 C   0  0  0  0  0  0  0  0  0  0  0  0
   -1.0323   -0.7500    0.0000 C   0  0  0  0  0  0  0  0  0  0  0  0
   -2.2458    0.1317    0.0000 C   0  0  0  0  0  0  0  0  0  0  0  0
   -1.0323    0.7500    0.0000 C   0  0  0  0  0  0  0  0  0  0  0  0
   -3.5114    3.9905    0.0000 N   0  0  0  0  0  0  0  0  0  0  0  0
   -3.3025    2.5051    0.0000 C   0  0  0  0  0  0  0  0  0  0  0  0
   -4.6729    1.8950    0.0000 O   0  0  0  0  0  0  0  0  0  0  0  0
   -4.4004    9.1700    0.0000 C   0  0  0  0  0  0  0  0  0  0  0  0
  1  2  1  0
  2  3  1  0
  3  4  1  0
  5  6  1  0
  6  7  2  0
  7  8  1  0
  8  9  1  0
  9  5  2  0
 10 11  1  0
 11 12  2  0
 12 13  1  0
 13 14  1  0
 14 10  2  0
 16 15  1  1
 16 17  1  0
 17 18  1  0
 19 20  1  0
 20 21  1  0
 21 22  1  0
 22 23  1  0
 23 24  1  0
 24 25  1  0
 24 26  1  0
 25 19  1  0
 26 21  1  0
 27 28  1  0
 28 29  2  0
  3  7  1  0
  5 14  1  0
 12 16  1  0
 18 26  1  0
 19 28  1  0
 10 30  1  0
M  END

