
     RDKit          2D

 38 42  0  0  0  0  0  0  0  0999 V2000
    6.9199   -4.5797    0.0000 N   0  0  0  0  0  0  0  0  0  0  0  0
    5.4933   -4.1162    0.0000 C   0  0  0  0  0  0  0  0  0  0  0  0
    4.3786   -5.1199    0.0000 C   0  0  0  0  0  0  0  0  0  0  0  0
    4.6904   -6.5871    0.0000 C   0  0  0  0  0  0  0  0  0  0  0  0
    6.1170   -7.0506    0.0000 C   0  0  0  0  0  0  0  0  0  0  0  0
    7.3305   -6.1690    0.0000 C   0  0  0  0  0  0  0  0  0  0  0  0
    8.5441   -7.0506    0.0000 C   0  0  0  0  0  0  0  0  0  0  0  0
    8.0805   -8.4772    0.0000 C   0  0  0  0  0  0  0  0  0  0  0  0
    6.5805   -8.4772    0.0000 N   0  0  0  0  0  0  0  0  0  0  0  0
    5.6989   -9.6908    0.0000 C   0  0  0  0  0  0  0  0  0  0  0  0
    6.3090  -11.0611    0.0000 C   0  0  0  0  0  0  0  0  0  0  0  0
    5.4273  -12.2746    0.0000 C   0  0  0  0  0  0  0  0  0  0  0  0
    6.0374  -13.6449    0.0000 N   0  0  0  0  0  0  0  0  0  0  0  0
    5.1557  -14.8584    0.0000 C   0  0  0  0  0  0  0  0  0  0  0  0
    5.7658  -16.2288    0.0000 N   0  0  0  0  0  0  0  0  0  0  0  0
    4.8841  -17.4423    0.0000 C   0  0  0  0  0  0  0  0  0  0  0  0
    5.4942  -18.8126    0.0000 C   0  0  0  0  0  0  0  0  0  0  0  0
    6.9860  -18.9694    0.0000 C   0  0  0  0  0  0  0  0  0  0  0  0
    7.8677  -17.7559    0.0000 C   0  0  0  0  0  0  0  0  0  0  0  0
    7.2576  -16.3856    0.0000 C   0  0  0  0  0  0  0  0  0  0  0  0
    2.9520   -4.6564    0.0000 N   0  0  0  0  0  0  0  0  0  0  0  0
    2.6401   -3.1891    0.0000 C   0  0  0  0  0  0  0  0  0  0  0  0
    3.7548   -2.1855    0.0000 O   0  0  0  0  0  0  0  0  0  0  0  0
    1.2135   -2.7256    0.0000 C   0  0  0  0  0  0  0  0  0  0  0  0
   -0.0000   -3.6073    0.0000 N   0  0  0  0  0  0  0  0  0  0  0  0
   -1.2135   -2.7256    0.0000 N   0  0  0  0  0  0  0  0  0  0  0  0
   -0.7500   -1.2990    0.0000 C   0  0  0  0  0  0  0  0  0  0  0  0
    0.7500   -1.2990    0.0000 C   0  0  0  0  0  0  0  0  0  0  0  0
    1.5000    0.0000    0.0000 C   0  0  0  0  0  0  0  0  0  0  0  0
    0.7500    1.2990    0.0000 C   0  0  0  0  0  0  0  0  0  0  0  0
    1.5000    2.5981    0.0000 N   0  0  0  0  0  0  0  0  0  0  0  0
    3.0000    2.5981    0.0000 C   0  0  0  0  0  0  0  0  0  0  0  0
    3.7500    3.8971    0.0000 C   0  0  0  0  0  0  0  0  0  0  0  0
    3.0000    5.1962    0.0000 O   0  0  0  0  0  0  0  0  0  0  0  0
    1.5000    5.1962    0.0000 C   0  0  0  0  0  0  0  0  0  0  0  0
    0.7500    3.8971    0.0000 C   0  0  0  0  0  0  0  0  0  0  0  0
   -0.7500    1.2990    0.0000 N   0  0  0  0  0  0  0  0  0  0  0  0
   -1.5000    0.0000    0.0000 C   0  0  0  0  0  0  0  0  0  0  0  0
  1  2  1  0
  3  2  1  6
  3  4  1  0
  4  5  1  0
  5  6  2  0
  6  7  1  0
  7  8  2  0
  8  9  1  0
  9 10  1  0
 10 11  1  0
 11 12  1  0
 12 13  1  0
 13 14  1  0
 14 15  1  0
 15 16  1  0
 16 17  1  0
 17 18  1  0
 18 19  1  0
 19 20  1  0
  3 21  1  0
 21 22  1  0
 22 23  2  0
 22 24  1  0
 24 25  2  0
 25 26  1  0
 26 27  1  0
 27 28  2  0
 28 29  1  0
 29 30  2  0
 30 31  1  0
 31 32  1  0
 32 33  1  0
 33 34  1  0
 34 35  1  0
 35 36  1  0
 30 37  1  0
 37 38  2  0
  9  5  1  0
 20 15  1  0
 28 24  1  0
 36 31  1  0
 38 27  1  0
M  END

