
     RDKit          2D

 31 34  0  0  0  0  0  0  0  0999 V2000
   -3.0000   -2.5981    0.0000 N   0  0  0  0  0  0  0  0  0  0  0  0
   -1.5000   -2.5981    0.0000 C   0  0  0  0  0  0  0  0  0  0  0  0
   -0.7500   -3.8971    0.0000 N   0  0  0  0  0  0  0  0  0  0  0  0
    0.7500   -1.2990    0.0000 C   0  0  0  0  0  0  0  0  0  0  0  0
    1.5000    0.0000    0.0000 C   0  0  0  0  0  0  0  0  0  0  0  0
    0.7500    1.2990    0.0000 C   0  0  0  0  0  0  0  0  0  0  0  0
   -0.7500    1.2990    0.0000 C   0  0  0  0  0  0  0  0  0  0  0  0
   -1.5000    0.0000    0.0000 C   0  0  0  0  0  0  0  0  0  0  0  0
   -0.7500   -1.2990    0.0000 C   0  0  0  0  0  0  0  0  0  0  0  0
    3.0000   -2.5981    0.0000 O   0  0  0  0  0  0  0  0  0  0  0  0
    1.5000   -2.5981    0.0000 C   0  0  0  0  0  0  0  0  0  0  0  0
    0.7500   -3.8971    0.0000 N   0  0  0  0  0  0  0  0  0  0  0  0
    0.7500   -6.4952    0.0000 C   0  0  0  0  0  0  0  0  0  0  0  0
    1.5000   -7.7942    0.0000 C   0  0  0  0  0  0  0  0  0  0  0  0
    3.0000   -7.7942    0.0000 C   0  0  0  0  0  0  0  0  0  0  0  0
    3.7500   -6.4952    0.0000 C   0  0  0  0  0  0  0  0  0  0  0  0
    3.0000   -5.1962    0.0000 C   0  0  0  0  0  0  0  0  0  0  0  0
    1.5000   -5.1962    0.0000 C   0  0  0  0  0  0  0  0  0  0  0  0
   -3.0583   -7.2452    0.0000 N   0  0  0  0  0  0  0  0  0  0  0  0
   -3.0583   -5.7452    0.0000 C   0  0  0  0  0  0  0  0  0  0  0  0
   -4.2718   -4.8635    0.0000 O   0  0  0  0  0  0  0  0  0  0  0  0
   -1.6317   -5.2817    0.0000 C   0  0  0  0  0  0  0  0  0  0  0  0
   -0.7500   -6.4952    0.0000 C   0  0  0  0  0  0  0  0  0  0  0  0
   -1.6317   -7.7087    0.0000 C   0  0  0  0  0  0  0  0  0  0  0  0
   -1.1682   -9.1353    0.0000 O   0  0  0  0  0  0  0  0  0  0  0  0
   -4.2718   -8.1269    0.0000 C   0  0  0  0  0  0  0  0  0  0  0  0
   -5.6421   -7.5168    0.0000 C   0  0  0  0  0  0  0  0  0  0  0  0
   -6.8556   -8.3984    0.0000 C   0  0  0  0  0  0  0  0  0  0  0  0
   -6.6988   -9.8902    0.0000 C   0  0  0  0  0  0  0  0  0  0  0  0
   -5.3285  -10.5003    0.0000 C   0  0  0  0  0  0  0  0  0  0  0  0
   -4.1150   -9.6187    0.0000 C   0  0  0  0  0  0  0  0  0  0  0  0
  1  2  1  0
  2  3  2  0
  4  5  2  0
  5  6  1  0
  6  7  2  0
  7  8  1  0
  8  9  2  0
  9  4  1  0
 10 11  2  0
 11 12  1  0
 13 14  2  0
 14 15  1  0
 15 16  2  0
 16 17  1  0
 17 18  2  0
 18 13  1  0
 19 20  1  0
 20 21  2  0
 20 22  1  0
 22 23  2  0
 23 24  1  0
 24 25  2  0
 24 19  1  0
 26 27  2  0
 27 28  1  0
 28 29  2  0
 29 30  1  0
 30 31  2  0
 31 26  1  0
  2  9  1  0
  4 11  1  0
 12 18  1  0
 13 23  1  0
 19 26  1  0
M  END

