
     RDKit          2D

 36 40  0  0  0  0  0  0  0  0999 V2000
   -9.0165    4.3002    0.0000 C   0  0  0  0  0  0  0  0  0  0  0  0
   -7.9018    3.2966    0.0000 C   0  0  0  0  0  0  0  0  0  0  0  0
   -6.4752    3.7601    0.0000 C   0  0  0  0  0  0  0  0  0  0  0  0
   -6.1634    5.2273    0.0000 C   0  0  0  0  0  0  0  0  0  0  0  0
   -7.2781    6.2310    0.0000 C   0  0  0  0  0  0  0  0  0  0  0  0
   -8.7047    5.7675    0.0000 C   0  0  0  0  0  0  0  0  0  0  0  0
  -14.0992    5.3806    0.0000 O   0  0  0  0  0  0  0  0  0  0  0  0
  -12.9844    4.3769    0.0000 C   0  0  0  0  0  0  0  0  0  0  0  0
  -11.5578    4.8404    0.0000 N   0  0  0  0  0  0  0  0  0  0  0  0
  -10.4431    3.8367    0.0000 C   0  0  0  0  0  0  0  0  0  0  0  0
  -10.7550    2.3695    0.0000 C   0  0  0  0  0  0  0  0  0  0  0  0
  -12.1816    1.9060    0.0000 N   0  0  0  0  0  0  0  0  0  0  0  0
  -13.2963    2.9097    0.0000 C   0  0  0  0  0  0  0  0  0  0  0  0
   -7.4108   -0.6416    0.0000 C   0  0  0  0  0  0  0  0  0  0  0  0
   -7.0990    0.8256    0.0000 C   0  0  0  0  0  0  0  0  0  0  0  0
   -8.2137    1.8293    0.0000 C   0  0  0  0  0  0  0  0  0  0  0  0
   -9.6403    1.3658    0.0000 C   0  0  0  0  0  0  0  0  0  0  0  0
   -9.9521   -0.1014    0.0000 C   0  0  0  0  0  0  0  0  0  0  0  0
   -8.8374   -1.1051    0.0000 C   0  0  0  0  0  0  0  0  0  0  0  0
   -6.2961   -1.6453    0.0000 C   0  0  0  0  0  0  0  0  0  0  0  0
   -8.0346   -3.5760    0.0000 C   0  0  0  0  0  0  0  0  0  0  0  0
   -6.6080   -3.1125    0.0000 N   0  0  0  0  0  0  0  0  0  0  0  0
   -5.4933   -4.1162    0.0000 C   0  0  0  0  0  0  0  0  0  0  0  0
   -4.0667   -3.6527    0.0000 C   0  0  0  0  0  0  0  0  0  0  0  0
   -2.6401   -3.1891    0.0000 C   0  0  0  0  0  0  0  0  0  0  0  0
   -0.0000   -5.1073    0.0000 O   0  0  0  0  0  0  0  0  0  0  0  0
   -0.0000   -3.6073    0.0000 C   0  0  0  0  0  0  0  0  0  0  0  0
    1.2135   -2.7256    0.0000 N   0  0  0  0  0  0  0  0  0  0  0  0
    0.7500   -1.2990    0.0000 C   0  0  0  0  0  0  0  0  0  0  0  0
    1.5000    0.0000    0.0000 C   0  0  0  0  0  0  0  0  0  0  0  0
    0.7500    1.2990    0.0000 C   0  0  0  0  0  0  0  0  0  0  0  0
   -0.7500    1.2990    0.0000 C   0  0  0  0  0  0  0  0  0  0  0  0
   -1.5000    0.0000    0.0000 C   0  0  0  0  0  0  0  0  0  0  0  0
   -0.7500   -1.2990    0.0000 C   0  0  0  0  0  0  0  0  0  0  0  0
   -1.2135   -2.7256    0.0000 N   0  0  0  0  0  0  0  0  0  0  0  0
  -14.7229    2.4461    0.0000 O   0  0  0  0  0  0  0  0  0  0  0  0
  1  2  2  0
  2  3  1  0
  3  4  2  0
  4  5  1  0
  5  6  2  0
  6  1  1  0
  7  8  2  0
  8  9  1  0
  9 10  1  0
 10 11  2  0
 11 12  1  0
 12 13  2  0
 13  8  1  0
 14 15  2  0
 15 16  1  0
 16 17  2  0
 17 18  1  0
 18 19  2  0
 19 14  1  0
 21 22  1  0
 22 23  1  0
 23 24  1  0
 24 25  3  0
 26 27  2  0
 27 28  1  0
 28 29  1  0
 29 30  2  0
 30 31  1  0
 31 32  2  0
 32 33  1  0
 33 34  2  0
 34 35  1  0
 35 27  1  0
 34 29  1  0
  1 10  1  0
 11 17  1  0
 14 20  1  0
 20 22  1  0
 25 35  1  0
 13 36  1  0
M  END

