
     RDKit          2D

 27 30  0  0  0  0  0  0  0  0999 V2000
    5.5211   10.9521    0.0000 C   0  0  0  0  0  0  0  0  0  0  0  0
    6.1312    9.5818    0.0000 C   0  0  0  0  0  0  0  0  0  0  0  0
    5.2495    8.3682    0.0000 C   0  0  0  0  0  0  0  0  0  0  0  0
    5.8596    6.9979    0.0000 N   0  0  0  0  0  0  0  0  0  0  0  0
    4.9780    5.7844    0.0000 S   0  0  0  0  0  0  0  0  0  0  0  0
    6.1915    4.9027    0.0000 O   0  0  0  0  0  0  0  0  0  0  0  0
    3.7644    6.6661    0.0000 O   0  0  0  0  0  0  0  0  0  0  0  0
    4.0963    4.5709    0.0000 C   0  0  0  0  0  0  0  0  0  0  0  0
    2.5963    4.5709    0.0000 N   0  0  0  0  0  0  0  0  0  0  0  0
    2.1328    3.1443    0.0000 N   0  0  0  0  0  0  0  0  0  0  0  0
    0.7062    2.6807    0.0000 C   0  0  0  0  0  0  0  0  0  0  0  0
   -0.4086    3.6844    0.0000 C   0  0  0  0  0  0  0  0  0  0  0  0
   -1.8351    3.2209    0.0000 C   0  0  0  0  0  0  0  0  0  0  0  0
   -2.1470    1.7537    0.0000 C   0  0  0  0  0  0  0  0  0  0  0  0
   -1.0323    0.7500    0.0000 C   0  0  0  0  0  0  0  0  0  0  0  0
    0.3943    1.2135    0.0000 C   0  0  0  0  0  0  0  0  0  0  0  0
    1.2760    0.0000    0.0000 C   0  0  0  0  0  0  0  0  0  0  0  0
    0.3943   -1.2135    0.0000 C   0  0  0  0  0  0  0  0  0  0  0  0
   -1.0323   -0.7500    0.0000 N   0  0  0  0  0  0  0  0  0  0  0  0
    3.3463    2.2626    0.0000 C   0  0  0  0  0  0  0  0  0  0  0  0
    3.3463    0.7626    0.0000 N   0  0  0  0  0  0  0  0  0  0  0  0
    2.0472    0.0126    0.0000 C   0  0  0  0  0  0  0  0  0  0  0  0
    2.0472   -1.4874    0.0000 C   0  0  0  0  0  0  0  0  0  0  0  0
    3.3463   -2.2374    0.0000 O   0  0  0  0  0  0  0  0  0  0  0  0
    4.6453   -1.4874    0.0000 C   0  0  0  0  0  0  0  0  0  0  0  0
    4.6453    0.0126    0.0000 C   0  0  0  0  0  0  0  0  0  0  0  0
    4.5598    3.1443    0.0000 N   0  0  0  0  0  0  0  0  0  0  0  0
  1  2  1  0
  2  3  1  0
  3  4  1  0
  4  5  1  0
  5  6  2  0
  5  7  2  0
  5  8  1  0
  8  9  2  0
  9 10  1  0
 10 11  1  0
 11 12  2  0
 12 13  1  0
 13 14  2  0
 14 15  1  0
 15 16  2  0
 16 17  1  0
 17 18  2  0
 18 19  1  0
 10 20  1  0
 20 21  1  0
 21 22  1  0
 22 23  1  0
 23 24  1  0
 24 25  1  0
 25 26  1  0
 20 27  2  0
 27  8  1  0
 16 11  1  0
 26 21  1  0
 19 15  1  0
M  END

