
     RDKit          2D

 25 27  0  0  0  0  0  0  0  0999 V2000
   -1.5000   -2.5981    0.0000 C   0  0  0  0  0  0  0  0  0  0  0  0
   -0.7500   -3.8971    0.0000 C   0  0  0  0  0  0  0  0  0  0  0  0
    0.7500   -3.8971    0.0000 C   0  0  0  0  0  0  0  0  0  0  0  0
    1.5000   -2.5981    0.0000 C   0  0  0  0  0  0  0  0  0  0  0  0
    0.7500   -1.2990    0.0000 C   0  0  0  0  0  0  0  0  0  0  0  0
    1.5000    0.0000    0.0000 C   0  0  0  0  0  0  0  0  0  0  0  0
    0.7500    1.2990    0.0000 C   0  0  0  0  0  0  0  0  0  0  0  0
   -0.7500    1.2990    0.0000 C   0  0  0  0  0  0  0  0  0  0  0  0
   -1.5000    0.0000    0.0000 N   0  0  0  0  0  0  0  0  0  0  0  0
   -0.7500   -1.2990    0.0000 C   0  0  0  0  0  0  0  0  0  0  0  0
   -3.0000   -4.0981    0.0000 O   0  0  0  0  0  0  0  0  0  0  0  0
   -3.0000   -2.5981    0.0000 S   0  0  0  0  0  0  0  0  0  0  0  0
   -3.0000   -1.0981    0.0000 O   0  0  0  0  0  0  0  0  0  0  0  0
   -4.5000   -2.5981    0.0000 N   0  0  0  0  0  0  0  0  0  0  0  0
   -5.7546    1.0750    0.0000 C   0  0  0  0  0  0  0  0  0  0  0  0
   -7.0537    0.3250    0.0000 N   0  0  0  0  0  0  0  0  0  0  0  0
   -6.7418   -1.1422    0.0000 C   0  0  0  0  0  0  0  0  0  0  0  0
   -5.2500   -1.2990    0.0000 C   0  0  0  0  0  0  0  0  0  0  0  0
   -4.6399    0.0713    0.0000 S   0  0  0  0  0  0  0  0  0  0  0  0
   -1.6437    2.9053    0.0000 C   0  0  0  0  0  0  0  0  0  0  0  0
   -2.8572    3.7870    0.0000 C   0  0  0  0  0  0  0  0  0  0  0  0
   -4.2275    3.1769    0.0000 S   0  0  0  0  0  0  0  0  0  0  0  0
   -3.6174    1.8065    0.0000 O   0  0  0  0  0  0  0  0  0  0  0  0
   -4.8376    4.5472    0.0000 O   0  0  0  0  0  0  0  0  0  0  0  0
   -5.5978    2.5668    0.0000 N   0  0  0  0  0  0  0  0  0  0  0  0
  1  2  2  0
  2  3  1  0
  3  4  2  0
  4  5  1  0
  5  6  2  0
  6  7  1  0
  7  8  2  0
  8  9  1  0
  9 10  2  0
 10  1  1  0
 10  5  1  0
 11 12  2  0
 12 13  2  0
 12 14  1  0
 15 16  2  0
 16 17  1  0
 17 18  2  0
 18 19  1  0
 19 15  1  0
 20 21  1  0
 21 22  1  0
 22 23  2  0
 22 24  2  0
 22 25  1  0
  1 12  1  0
 14 18  1  0
 15 25  1  0
M  END

