
     RDKit          2D

 33 38  0  0  0  0  0  0  0  0999 V2000
   -4.6594    2.6401    0.0000 N   0  0  0  0  0  0  0  0  0  0  0  0
   -5.1230    1.2135    0.0000 C   0  0  0  0  0  0  0  0  0  0  0  0
   -6.5495    0.7500    0.0000 C   0  0  0  0  0  0  0  0  0  0  0  0
   -7.7631    1.6317    0.0000 N   0  0  0  0  0  4  0  0  0  0  0  0
   -7.6063    3.1235    0.0000 O   0  0  0  0  0  0  0  0  0  0  0  0
   -9.1334    1.0216    0.0000 O   0  0  0  0  0  1  0  0  0  0  0  0
   -6.5495   -0.7500    0.0000 C   0  0  0  0  0  0  0  0  0  0  0  0
   -5.1230   -1.2135    0.0000 N   0  0  0  0  0  0  0  0  0  0  0  0
   -4.2413    0.0000    0.0000 N   0  0  0  0  0  0  0  0  0  0  0  0
   -2.7413    0.0000    0.0000 N   0  0  0  0  0  0  0  0  0  0  0  0
   -1.8596    1.2135    0.0000 C   0  0  0  0  0  0  0  0  0  0  0  0
   -0.4330    0.7500    0.0000 C   0  0  0  0  0  0  0  0  0  0  0  0
    0.8660    0.0000    0.0000 C   0  0  0  0  0  0  0  0  0  0  0  0
   -0.4330   -0.7500    0.0000 C   0  0  0  0  0  0  0  0  0  0  0  0
    0.1771   -2.1203    0.0000 C   0  0  0  0  0  0  0  0  0  0  0  0
    1.6443   -2.4322    0.0000 N   0  0  0  0  0  0  0  0  0  0  0  0
    1.8011   -3.9240    0.0000 C   0  0  0  0  0  0  0  0  0  0  0  0
    3.1001   -4.6740    0.0000 C   0  0  0  0  0  0  0  0  0  0  0  0
    3.1001   -6.1740    0.0000 C   0  0  0  0  0  0  0  0  0  0  0  0
    4.3992   -6.9240    0.0000 C   0  0  0  0  0  0  0  0  0  0  0  0
    4.3992   -8.4240    0.0000 Cl  0  0  0  0  0  0  0  0  0  0  0  0
    5.6982   -6.1740    0.0000 C   0  0  0  0  0  0  0  0  0  0  0  0
    5.6982   -4.6740    0.0000 N   0  0  0  0  0  0  0  0  0  0  0  0
    4.3992   -3.9240    0.0000 C   0  0  0  0  0  0  0  0  0  0  0  0
    0.4308   -4.5341    0.0000 C   0  0  0  0  0  0  0  0  0  0  0  0
   -0.5729   -3.4194    0.0000 N   0  0  0  0  0  0  0  0  0  0  0  0
   -2.0647   -3.5761    0.0000 N   0  0  0  0  0  0  0  0  0  0  0  0
   -2.6748   -4.9465    0.0000 C   0  0  0  0  0  0  0  0  0  0  0  0
   -4.1666   -5.1033    0.0000 N   0  0  0  0  0  0  0  0  0  0  0  0
   -5.3323   -4.1593    0.0000 C   0  0  0  0  0  0  0  0  0  0  0  0
   -6.2763   -5.3250    0.0000 C   0  0  0  0  0  0  0  0  0  0  0  0
   -5.1106   -6.2690    0.0000 C   0  0  0  0  0  0  0  0  0  0  0  0
   -1.8596   -1.2135    0.0000 C   0  0  0  0  0  0  0  0  0  0  0  0
  1  2  1  0
  2  3  2  0
  3  4  1  0
  4  5  2  0
  4  6  1  0
  3  7  1  0
  7  8  2  0
  8  9  1  0
  9 10  1  0
 10 11  1  0
 12 11  1  1
 12 13  1  0
 13 14  1  0
 14 15  1  6
 15 16  2  0
 16 17  1  0
 17 18  1  0
 18 19  2  0
 19 20  1  0
 20 21  1  0
 20 22  2  0
 22 23  1  0
 23 24  2  0
 17 25  2  0
 25 26  1  0
 26 27  1  0
 27 28  1  0
 28 29  1  0
 29 30  1  0
 30 31  1  0
 31 32  1  0
 14 33  1  0
  9  2  1  0
 33 10  1  0
 14 12  1  0
 26 15  1  0
 32 29  1  0
 24 18  1  0
M  CHG  2   4   1   6  -1
M  END

