
     RDKit          2D

 32 36  0  0  0  0  0  0  0  0999 V2000
   -0.0000   -3.6073    0.0000 C   0  0  0  0  0  0  0  0  0  0  0  0
    1.2135   -2.7256    0.0000 N   0  0  0  0  0  0  0  0  0  0  0  0
    0.7500   -1.2990    0.0000 C   0  0  0  0  0  0  0  0  0  0  0  0
    1.5000    0.0000    0.0000 C   0  0  0  0  0  0  0  0  0  0  0  0
    0.7500    1.2990    0.0000 C   0  0  0  0  0  0  0  0  0  0  0  0
   -0.7500    1.2990    0.0000 C   0  0  0  0  0  0  0  0  0  0  0  0
   -1.5000    0.0000    0.0000 N   0  0  0  0  0  0  0  0  0  0  0  0
   -0.7500   -1.2990    0.0000 C   0  0  0  0  0  0  0  0  0  0  0  0
   -1.2135   -2.7256    0.0000 N   0  0  0  0  0  0  0  0  0  0  0  0
   -0.0000   -8.1073    0.0000 C   0  0  0  0  0  0  0  0  0  0  0  0
    1.2990   -7.3573    0.0000 C   0  0  0  0  0  0  0  0  0  0  0  0
    1.2990   -5.8573    0.0000 C   0  0  0  0  0  0  0  0  0  0  0  0
   -0.0000   -5.1073    0.0000 N   0  0  0  0  0  0  0  0  0  0  0  0
   -1.2990   -5.8573    0.0000 C   0  0  0  0  0  0  0  0  0  0  0  0
   -1.2990   -7.3573    0.0000 C   0  0  0  0  0  0  0  0  0  0  0  0
   -2.9544   -7.5864    0.0000 O   0  0  0  0  0  0  0  0  0  0  0  0
   -2.4414   -8.9959    0.0000 C   0  0  0  0  0  0  0  0  0  0  0  0
   -3.4056  -10.1450    0.0000 C   0  0  0  0  0  0  0  0  0  0  0  0
   -4.3698  -11.2940    0.0000 C   0  0  0  0  0  0  0  0  0  0  0  0
   -0.9642   -9.2564    0.0000 N   0  0  0  0  0  0  0  0  0  0  0  0
   -0.3664  -13.0915    0.0000 C   0  0  0  0  0  0  0  0  0  0  0  0
    1.0431  -12.5784    0.0000 C   0  0  0  0  0  0  0  0  0  0  0  0
    0.9907  -11.0794    0.0000 N   0  0  0  0  0  0  0  0  0  0  0  0
   -0.4512  -10.6659    0.0000 C   0  0  0  0  0  0  0  0  0  0  0  0
   -1.2899  -11.9095    0.0000 C   0  0  0  0  0  0  0  0  0  0  0  0
   -0.7799  -14.5334    0.0000 Cl  0  0  0  0  0  0  0  0  0  0  0  0
   -5.3339  -12.4431    0.0000 N   0  0  0  0  0  0  0  0  0  0  0  0
   -4.9711  -13.8985    0.0000 C   0  0  0  0  0  0  0  0  0  0  0  0
   -6.2431  -14.6934    0.0000 C   0  0  0  0  0  0  0  0  0  0  0  0
   -7.3922  -13.7292    0.0000 C   0  0  0  0  0  0  0  0  0  0  0  0
   -6.8303  -12.3385    0.0000 C   0  0  0  0  0  0  0  0  0  0  0  0
    0.9642   -9.2564    0.0000 N   0  0  0  0  0  0  0  0  0  0  0  0
  1  2  2  0
  2  3  1  0
  3  4  2  0
  4  5  1  0
  5  6  2  0
  6  7  1  0
  7  8  1  0
  8  9  2  0
  9  1  1  0
  8  3  1  0
 10 11  1  0
 11 12  1  0
 12 13  1  0
 13 14  1  0
 14 15  1  0
 15 10  1  0
 16 17  2  0
 17 18  1  0
 18 19  3  0
 17 20  1  0
 21 22  2  0
 22 23  1  0
 23 24  1  0
 24 25  2  0
 25 21  1  0
 27 28  1  0
 28 29  2  0
 29 30  1  0
 30 31  2  0
 31 27  1  0
  1 13  1  0
 10 20  1  0
 20 24  1  0
 21 26  1  0
 19 27  1  0
 10 32  1  0
M  END

