
     RDKit          2D

 31 34  0  0  0  0  0  0  0  0999 V2000
    0.7500   -1.2990    0.0000 N   0  0  0  0  0  0  0  0  0  0  0  0
    1.5000    0.0000    0.0000 C   0  0  0  0  0  0  0  0  0  0  0  0
    0.7500    1.2990    0.0000 C   0  0  0  0  0  0  0  0  0  0  0  0
   -0.7500    1.2990    0.0000 O   0  0  0  0  0  0  0  0  0  0  0  0
   -1.5000    0.0000    0.0000 C   0  0  0  0  0  0  0  0  0  0  0  0
   -0.7500   -1.2990    0.0000 C   0  0  0  0  0  0  0  0  0  0  0  0
    3.3037   -4.2221    0.0000 C   0  0  0  0  0  0  0  0  0  0  0  0
    2.0046   -4.9721    0.0000 N   0  0  0  0  0  0  0  0  0  0  0  0
    0.8899   -3.9684    0.0000 C   0  0  0  0  0  0  0  0  0  0  0  0
    1.5000   -2.5981    0.0000 N   0  0  0  0  0  0  0  0  0  0  0  0
    2.9918   -2.7549    0.0000 N   0  0  0  0  0  0  0  0  0  0  0  0
   -1.0409   -5.7068    0.0000 C   0  0  0  0  0  0  0  0  0  0  0  0
   -2.5081   -6.0187    0.0000 C   0  0  0  0  0  0  0  0  0  0  0  0
   -3.5118   -4.9040    0.0000 N   0  0  0  0  0  0  0  0  0  0  0  0
   -3.0482   -3.4774    0.0000 C   0  0  0  0  0  0  0  0  0  0  0  0
   -1.5810   -3.1655    0.0000 C   0  0  0  0  0  0  0  0  0  0  0  0
   -0.5773   -4.2803    0.0000 C   0  0  0  0  0  0  0  0  0  0  0  0
   -5.0556   -1.2480    0.0000 F   0  0  0  0  0  0  0  0  0  0  0  0
   -4.0519   -2.3627    0.0000 C   0  0  0  0  0  0  0  0  0  0  0  0
   -5.1667   -3.3664    0.0000 F   0  0  0  0  0  0  0  0  0  0  0  0
   -2.9372   -1.3590    0.0000 F   0  0  0  0  0  0  0  0  0  0  0  0
   -0.0372   -6.8216    0.0000 N   0  0  0  0  0  0  0  0  0  0  0  0
    4.6740   -4.8322    0.0000 C   0  0  0  0  0  0  0  0  0  0  0  0
    6.1412   -5.1441    0.0000 C   0  0  0  0  0  0  0  0  0  0  0  0
    6.2980   -6.6358    0.0000 C   0  0  0  0  0  0  0  0  0  0  0  0
    4.9277   -7.2460    0.0000 C   0  0  0  0  0  0  0  0  0  0  0  0
    3.9240   -6.1312    0.0000 C   0  0  0  0  0  0  0  0  0  0  0  0
    5.6010   -1.9790    0.0000 C   0  0  0  0  0  0  0  0  0  0  0  0
    5.1375   -3.4056    0.0000 S   0  0  0  0  0  0  0  0  0  0  0  0
    3.9927   -2.6902    0.0000 O   0  0  0  0  0  0  0  0  0  0  0  0
    6.5641   -3.8691    0.0000 O   0  0  0  0  0  0  0  0  0  0  0  0
  1  2  1  0
  2  3  1  0
  3  4  1  0
  4  5  1  0
  5  6  1  0
  6  1  1  0
  7  8  1  0
  8  9  2  0
  9 10  1  0
 10 11  1  0
 11  7  2  0
 12 13  2  0
 13 14  1  0
 14 15  2  0
 15 16  1  0
 16 17  2  0
 17 12  1  0
 18 19  1  0
 19 20  1  0
 19 21  1  0
 23 24  1  0
 24 25  1  0
 25 26  1  0
 26 27  1  0
 27 23  1  0
 28 29  1  0
 29 30  2  0
 29 31  2  0
  1 10  1  0
  9 17  1  0
 15 19  1  0
 12 22  1  0
  7 23  1  0
 23 29  1  0
M  END

