
     RDKit          2D

 34 37  0  0  0  0  0  0  0  0999 V2000
  -13.7792    2.1984    0.0000 C   0  0  0  0  0  0  0  0  0  0  0  0
  -12.2875    2.0416    0.0000 C   0  0  0  0  0  0  0  0  0  0  0  0
  -11.4058    3.2551    0.0000 C   0  0  0  0  0  0  0  0  0  0  0  0
   -9.9140    3.0983    0.0000 N   0  0  0  0  0  0  0  0  0  0  0  0
   -6.6589    5.3686    0.0000 C   0  0  0  0  0  0  0  0  0  0  0  0
   -7.5405    4.1551    0.0000 N   0  0  0  0  0  0  0  0  0  0  0  0
   -9.0323    4.3118    0.0000 C   0  0  0  0  0  0  0  0  0  0  0  0
   -4.1634    6.3265    0.0000 C   0  0  0  0  0  0  0  0  0  0  0  0
   -2.7931    5.7164    0.0000 N   0  0  0  0  0  0  0  0  0  0  0  0
   -2.9499    4.2246    0.0000 C   0  0  0  0  0  0  0  0  0  0  0  0
   -4.4171    3.9127    0.0000 C   0  0  0  0  0  0  0  0  0  0  0  0
   -5.1671    5.2118    0.0000 N   0  0  0  0  0  0  0  0  0  0  0  0
   -1.8351    3.2209    0.0000 C   0  0  0  0  0  0  0  0  0  0  0  0
   -0.4086    3.6844    0.0000 C   0  0  0  0  0  0  0  0  0  0  0  0
    0.7062    2.6807    0.0000 C   0  0  0  0  0  0  0  0  0  0  0  0
    0.3943    1.2135    0.0000 C   0  0  0  0  0  0  0  0  0  0  0  0
    1.2760    0.0000    0.0000 N   0  0  0  0  0  0  0  0  0  0  0  0
    0.3943   -1.2135    0.0000 N   0  0  0  0  0  0  0  0  0  0  0  0
   -1.0323   -0.7500    0.0000 C   0  0  0  0  0  0  0  0  0  0  0  0
   -1.0323    0.7500    0.0000 C   0  0  0  0  0  0  0  0  0  0  0  0
   -2.1470    1.7537    0.0000 C   0  0  0  0  0  0  0  0  0  0  0  0
   -3.3605    8.7974    0.0000 C   0  0  0  0  0  0  0  0  0  0  0  0
   -4.4752    7.7937    0.0000 N   0  0  0  0  0  0  0  0  0  0  0  0
   -5.9018    8.2572    0.0000 C   0  0  0  0  0  0  0  0  0  0  0  0
   -6.2137    9.7245    0.0000 C   0  0  0  0  0  0  0  0  0  0  0  0
   -6.5256   11.1917    0.0000 C   0  0  0  0  0  0  0  0  0  0  0  0
   -8.2078   13.2690    0.0000 C   0  0  0  0  0  0  0  0  0  0  0  0
   -6.8374   12.6589    0.0000 C   0  0  0  0  0  0  0  0  0  0  0  0
   -5.8337   13.7736    0.0000 N   0  0  0  0  0  0  0  0  0  0  0  0
   -6.5837   15.0727    0.0000 N   0  0  0  0  0  0  0  0  0  0  0  0
   -8.0510   14.7608    0.0000 C   0  0  0  0  0  0  0  0  0  0  0  0
   -9.1657   15.7645    0.0000 N   0  0  0  0  0  0  0  0  0  0  0  0
  -10.8058   11.7690    0.0000 N   0  0  0  0  0  0  0  0  0  0  0  0
   -9.5068   12.5190    0.0000 C   0  0  0  0  0  0  0  0  0  0  0  0
  1  2  1  0
  2  3  1  0
  3  4  1  0
  5  6  1  0
  6  7  1  0
  8  9  2  0
  9 10  1  0
 10 11  2  0
 11 12  1  0
 12  8  1  0
 13 14  2  0
 14 15  1  0
 15 16  2  0
 16 17  1  0
 17 18  1  0
 18 19  2  0
 19 20  1  0
 20 21  2  0
 21 13  1  0
 20 16  1  0
 22 23  1  0
 23 24  1  0
 24 25  1  0
 25 26  3  0
 27 28  1  0
 28 29  2  0
 29 30  1  0
 30 31  1  0
 31 27  2  0
 33 34  3  0
  4  7  1  0
  5 12  1  0
 10 13  1  0
  8 23  1  0
 26 28  1  0
 31 32  1  0
 27 34  1  0
M  END

