
     RDKit          2D

 35 40  0  0  0  0  0  0  0  0999 V2000
   -8.7266   -7.4981    0.0000 C   0  0  0  0  0  0  0  0  0  0  0  0
   -9.9401   -8.3798    0.0000 C   0  0  0  0  0  0  0  0  0  0  0  0
   -9.7833   -9.8716    0.0000 C   0  0  0  0  0  0  0  0  0  0  0  0
   -8.4130  -10.4817    0.0000 C   0  0  0  0  0  0  0  0  0  0  0  0
   -7.1995   -9.6000    0.0000 C   0  0  0  0  0  0  0  0  0  0  0  0
   -7.3563   -8.1082    0.0000 C   0  0  0  0  0  0  0  0  0  0  0  0
   -8.1334   -2.1980    0.0000 O   0  0  0  0  0  0  0  0  0  0  0  0
   -8.1334   -3.6980    0.0000 C   0  0  0  0  0  0  0  0  0  0  0  0
   -9.3469   -4.5797    0.0000 N   0  0  0  0  0  0  0  0  0  0  0  0
   -8.8834   -6.0063    0.0000 C   0  0  0  0  0  0  0  0  0  0  0  0
   -7.3834   -6.0063    0.0000 C   0  0  0  0  0  0  0  0  0  0  0  0
   -6.5017   -7.2198    0.0000 O   0  0  0  0  0  0  0  0  0  0  0  0
   -6.9199   -4.5797    0.0000 N   0  0  0  0  0  0  0  0  0  0  0  0
   -2.6401   -3.1891    0.0000 C   0  0  0  0  0  0  0  0  0  0  0  0
   -3.7548   -2.1855    0.0000 N   0  0  0  0  0  0  0  0  0  0  0  0
   -5.1814   -2.6490    0.0000 C   0  0  0  0  0  0  0  0  0  0  0  0
   -5.4933   -4.1162    0.0000 C   0  0  0  0  0  0  0  0  0  0  0  0
   -4.3786   -5.1199    0.0000 C   0  0  0  0  0  0  0  0  0  0  0  0
   -2.9520   -4.6564    0.0000 N   0  0  0  0  0  0  0  0  0  0  0  0
   -1.2135   -2.7256    0.0000 C   0  0  0  0  0  0  0  0  0  0  0  0
   -0.0000   -3.6073    0.0000 C   0  0  0  0  0  0  0  0  0  0  0  0
    1.2135   -2.7256    0.0000 N   0  0  0  0  0  0  0  0  0  0  0  0
    0.7500   -1.2990    0.0000 C   0  0  0  0  0  0  0  0  0  0  0  0
    1.5000    0.0000    0.0000 N   0  0  0  0  0  0  0  0  0  0  0  0
    0.7500    1.2990    0.0000 C   0  0  0  0  0  0  0  0  0  0  0  0
   -0.7500    1.2990    0.0000 C   0  0  0  0  0  0  0  0  0  0  0  0
   -1.5000    0.0000    0.0000 C   0  0  0  0  0  0  0  0  0  0  0  0
   -0.7500   -1.2990    0.0000 N   0  0  0  0  0  0  0  0  0  0  0  0
  -11.3543   -5.2035    0.0000 C   0  0  0  0  0  0  0  0  0  0  0  0
  -12.8215   -5.5153    0.0000 N   0  0  0  0  0  0  0  0  0  0  0  0
  -13.2851   -6.9419    0.0000 C   0  0  0  0  0  0  0  0  0  0  0  0
  -12.2814   -8.0566    0.0000 C   0  0  0  0  0  0  0  0  0  0  0  0
  -10.8141   -7.7448    0.0000 C   0  0  0  0  0  0  0  0  0  0  0  0
  -10.3506   -6.3182    0.0000 C   0  0  0  0  0  0  0  0  0  0  0  0
  -10.8908   -3.7769    0.0000 N   0  0  0  0  0  0  0  0  0  0  0  0
  1  2  2  0
  2  3  1  0
  3  4  2  0
  4  5  1  0
  5  6  2  0
  6  1  1  0
  7  8  2  0
  8  9  1  0
  9 10  1  0
 10 11  1  0
 11 12  2  0
 11 13  1  0
 13  8  1  0
 14 15  2  0
 15 16  1  0
 16 17  2  0
 17 18  1  0
 18 19  2  0
 19 14  1  0
 20 21  2  0
 21 22  1  0
 22 23  2  0
 23 24  1  0
 24 25  2  0
 25 26  1  0
 26 27  2  0
 27 28  1  0
 28 20  1  0
 28 23  1  0
 29 30  2  0
 30 31  1  0
 31 32  2  0
 32 33  1  0
 33 34  2  0
 34 29  1  0
  1 10  1  0
 13 17  1  0
 14 20  1  0
 10 34  1  0
 29 35  1  0
M  END

