
     RDKit          2D

 29 33  0  0  0  0  0  0  0  0999 V2000
   -1.8351    3.2209    0.0000 C   0  0  0  0  0  0  0  0  0  0  0  0
   -0.4086    3.6844    0.0000 C   0  0  0  0  0  0  0  0  0  0  0  0
    0.7062    2.6807    0.0000 C   0  0  0  0  0  0  0  0  0  0  0  0
    0.3943    1.2135    0.0000 C   0  0  0  0  0  0  0  0  0  0  0  0
    1.2760    0.0000    0.0000 N   0  0  0  0  0  0  0  0  0  0  0  0
    0.3943   -1.2135    0.0000 C   0  0  0  0  0  0  0  0  0  0  0  0
   -1.0323   -0.7500    0.0000 N   0  0  0  0  0  0  0  0  0  0  0  0
   -1.0323    0.7500    0.0000 C   0  0  0  0  0  0  0  0  0  0  0  0
   -2.1470    1.7537    0.0000 C   0  0  0  0  0  0  0  0  0  0  0  0
   -4.1634    6.3265    0.0000 C   0  0  0  0  0  0  0  0  0  0  0  0
   -2.7931    5.7164    0.0000 O   0  0  0  0  0  0  0  0  0  0  0  0
   -2.9499    4.2246    0.0000 C   0  0  0  0  0  0  0  0  0  0  0  0
   -4.4171    3.9127    0.0000 C   0  0  0  0  0  0  0  0  0  0  0  0
   -5.1671    5.2118    0.0000 N   0  0  0  0  0  0  0  0  0  0  0  0
   -5.0272    2.5424    0.0000 N   0  0  0  0  0  4  0  0  0  0  0  0
   -6.5190    2.3856    0.0000 O   0  0  0  0  0  0  0  0  0  0  0  0
   -4.1455    1.3289    0.0000 O   0  0  0  0  0  1  0  0  0  0  0  0
   -3.6724   10.2646    0.0000 C   0  0  0  0  0  0  0  0  0  0  0  0
   -5.0990   10.7282    0.0000 N   0  0  0  0  0  0  0  0  0  0  0  0
   -6.2137    9.7245    0.0000 C   0  0  0  0  0  0  0  0  0  0  0  0
   -5.9018    8.2572    0.0000 C   0  0  0  0  0  0  0  0  0  0  0  0
   -4.4752    7.7937    0.0000 C   0  0  0  0  0  0  0  0  0  0  0  0
   -3.3605    8.7974    0.0000 N   0  0  0  0  0  0  0  0  0  0  0  0
   -2.5577   11.2683    0.0000 C   0  0  0  0  0  0  0  0  0  0  0  0
   -1.1311   10.8048    0.0000 C   0  0  0  0  0  0  0  0  0  0  0  0
   -0.0164   11.8085    0.0000 C   0  0  0  0  0  0  0  0  0  0  0  0
   -0.3282   13.2757    0.0000 C   0  0  0  0  0  0  0  0  0  0  0  0
   -1.7548   13.7393    0.0000 C   0  0  0  0  0  0  0  0  0  0  0  0
   -2.8695   12.7356    0.0000 C   0  0  0  0  0  0  0  0  0  0  0  0
  1  2  2  0
  2  3  1  0
  3  4  2  0
  4  5  1  0
  5  6  2  0
  6  7  1  0
  7  8  1  0
  8  9  2  0
  9  1  1  0
  8  4  1  0
 10 11  1  0
 11 12  1  0
 12 13  2  0
 13 14  1  0
 14 10  2  0
 15 16  2  0
 15 17  1  0
 18 19  2  0
 19 20  1  0
 20 21  1  0
 21 22  1  0
 22 23  1  0
 23 18  1  0
 24 25  2  0
 25 26  1  0
 26 27  2  0
 27 28  1  0
 28 29  2  0
 29 24  1  0
  1 12  1  0
 13 15  1  0
 22 10  1  1
 18 24  1  0
M  CHG  2  15   1  17  -1
M  END

