
     RDKit          2D

 25 27  0  0  0  0  0  0  0  0999 V2000
   -3.0000    0.0000    0.0000 S   0  0  0  0  0  0  0  0  0  0  0  0
    0.7500   -1.2990    0.0000 N   0  0  0  0  0  0  0  0  0  0  0  0
    1.5000    0.0000    0.0000 C   0  0  0  0  0  0  0  0  0  0  0  0
    0.7500    1.2990    0.0000 C   0  0  0  0  0  0  0  0  0  0  0  0
   -0.7500    1.2990    0.0000 C   0  0  0  0  0  0  0  0  0  0  0  0
   -1.5000    0.0000    0.0000 C   0  0  0  0  0  0  0  0  0  0  0  0
   -0.7500   -1.2990    0.0000 C   0  0  0  0  0  0  0  0  0  0  0  0
    3.3037   -4.2221    0.0000 C   0  0  0  0  0  0  0  0  0  0  0  0
    2.0046   -4.9721    0.0000 C   0  0  0  0  0  0  0  0  0  0  0  0
    0.8899   -3.9684    0.0000 N   0  0  0  0  0  0  0  0  0  0  0  0
    1.5000   -2.5981    0.0000 C   0  0  0  0  0  0  0  0  0  0  0  0
    2.9918   -2.7549    0.0000 O   0  0  0  0  0  0  0  0  0  0  0  0
    6.4776   -6.4562    0.0000 C   0  0  0  0  0  0  0  0  0  0  0  0
    7.0877   -5.0859    0.0000 N   0  0  0  0  0  0  0  0  0  0  0  0
    5.9730   -4.0822    0.0000 C   0  0  0  0  0  0  0  0  0  0  0  0
    4.6740   -4.8322    0.0000 C   0  0  0  0  0  0  0  0  0  0  0  0
    4.9858   -6.2994    0.0000 S   0  0  0  0  0  0  0  0  0  0  0  0
    9.0272    0.1216    0.0000 C   0  0  0  0  0  0  0  0  0  0  0  0
    7.6569   -0.4885    0.0000 C   0  0  0  0  0  0  0  0  0  0  0  0
    7.5001   -1.9803    0.0000 C   0  0  0  0  0  0  0  0  0  0  0  0
    6.1298   -2.5904    0.0000 S   0  0  0  0  0  0  0  0  0  0  0  0
    7.2276  -10.3533    0.0000 C   0  0  0  0  0  0  0  0  0  0  0  0
    6.4776   -9.0543    0.0000 C   0  0  0  0  0  0  0  0  0  0  0  0
    4.9776   -9.0543    0.0000 O   0  0  0  0  0  0  0  0  0  0  0  0
    7.2276   -7.7552    0.0000 N   0  0  0  0  0  0  0  0  0  0  0  0
  2  3  1  0
  3  4  1  0
  4  5  1  0
  5  6  1  0
  6  7  1  0
  7  2  1  0
  8  9  2  0
  9 10  1  0
 10 11  2  0
 11 12  1  0
 12  8  1  0
 13 14  2  0
 14 15  1  0
 15 16  2  0
 16 17  1  0
 17 13  1  0
 18 19  1  0
 19 20  1  0
 20 21  1  0
 22 23  1  0
 23 24  2  0
 23 25  1  0
  1  6  1  0
  2 11  1  0
  8 16  1  0
 15 21  1  0
 13 25  1  0
M  END

