
     RDKit          2D

 33 37  0  0  0  0  0  0  0  0999 V2000
    1.5000   -2.5981    0.0000 C   0  0  0  0  0  0  0  0  0  0  0  0
    0.7500   -3.8971    0.0000 C   0  0  0  0  0  0  0  0  0  0  0  0
   -0.7500   -3.8971    0.0000 C   0  0  0  0  0  0  0  0  0  0  0  0
   -1.5000   -2.5981    0.0000 C   0  0  0  0  0  0  0  0  0  0  0  0
   -0.7500   -1.2990    0.0000 C   0  0  0  0  0  0  0  0  0  0  0  0
    0.7500   -1.2990    0.0000 C   0  0  0  0  0  0  0  0  0  0  0  0
    1.5000    0.0000    0.0000 C   0  0  0  0  0  0  0  0  0  0  0  0
    0.7500    1.2990    0.0000 C   0  0  0  0  0  0  0  0  0  0  0  0
   -0.7500    1.2990    0.0000 C   0  0  0  0  0  0  0  0  0  0  0  0
   -1.5000    0.0000    0.0000 C   0  0  0  0  0  0  0  0  0  0  0  0
    3.7500   -3.8971    0.0000 C   0  0  0  0  0  0  0  0  0  0  0  0
    3.0000   -2.5981    0.0000 O   0  0  0  0  0  0  0  0  0  0  0  0
    7.5583   -3.1471    0.0000 C   0  0  0  0  0  0  0  0  0  0  0  0
    7.5583   -4.6471    0.0000 C   0  0  0  0  0  0  0  0  0  0  0  0
    6.1317   -5.1106    0.0000 C   0  0  0  0  0  0  0  0  0  0  0  0
    5.2500   -3.8971    0.0000 C   0  0  0  0  0  0  0  0  0  0  0  0
    6.1317   -2.6836    0.0000 O   0  0  0  0  0  0  0  0  0  0  0  0
   11.1988   -0.5021    0.0000 O   0  0  0  0  0  0  0  0  0  0  0  0
   11.3556   -1.9939    0.0000 C   0  0  0  0  0  0  0  0  0  0  0  0
   10.1421   -2.8755    0.0000 C   0  0  0  0  0  0  0  0  0  0  0  0
    8.7718   -2.2654    0.0000 S   0  0  0  0  0  0  0  0  0  0  0  0
   12.7260   -2.6040    0.0000 N   0  0  0  0  0  0  0  0  0  0  0  0
   14.9962    0.6512    0.0000 C   0  0  0  0  0  0  0  0  0  0  0  0
   16.3665    0.0411    0.0000 C   0  0  0  0  0  0  0  0  0  0  0  0
   16.5233   -1.4507    0.0000 C   0  0  0  0  0  0  0  0  0  0  0  0
   17.7368   -2.3324    0.0000 O   0  0  0  0  0  0  0  0  0  0  0  0
   17.2733   -3.7590    0.0000 C   0  0  0  0  0  0  0  0  0  0  0  0
   15.7733   -3.7590    0.0000 C   0  0  0  0  0  0  0  0  0  0  0  0
   15.3098   -2.3324    0.0000 C   0  0  0  0  0  0  0  0  0  0  0  0
   13.9395   -1.7223    0.0000 C   0  0  0  0  0  0  0  0  0  0  0  0
   13.7827   -0.2305    0.0000 N   0  0  0  0  0  0  0  0  0  0  0  0
   16.0529    3.0246    0.0000 C   0  0  0  0  0  0  0  0  0  0  0  0
   14.8394    2.1430    0.0000 O   0  0  0  0  0  0  0  0  0  0  0  0
  1  2  2  0
  2  3  1  0
  3  4  2  0
  4  5  1  0
  5  6  2  0
  6  7  1  0
  7  8  1  0
  8  9  1  0
  9 10  1  0
  6  1  1  0
 10  5  1  0
 11 12  1  0
 13 14  2  0
 14 15  1  0
 15 16  2  0
 16 17  1  0
 17 13  1  0
 18 19  2  0
 19 20  1  0
 20 21  1  0
 19 22  1  0
 23 24  2  0
 24 25  1  0
 25 26  1  0
 26 27  1  0
 27 28  2  0
 28 29  1  0
 29 30  1  0
 30 31  2  0
 31 23  1  0
 29 25  2  0
 32 33  1  0
  1 12  1  0
 11 16  1  0
 13 21  1  0
 22 30  1  0
 23 33  1  0
M  END

