
     RDKit          2D

 28 32  0  0  0  0  0  0  0  0999 V2000
   -0.0000   -5.1073    0.0000 C   0  0  0  0  0  0  0  0  0  0  0  0
   -1.2990   -5.8573    0.0000 F   0  0  0  0  0  0  0  0  0  0  0  0
    1.2135   -2.7256    0.0000 N   0  0  0  0  0  0  0  0  0  0  0  0
    0.7500   -1.2990    0.0000 C   0  0  0  0  0  0  0  0  0  0  0  0
    1.5000   -0.0000    0.0000 C   0  0  0  0  0  0  0  0  0  0  0  0
    0.7500    1.2990    0.0000 C   0  0  0  0  0  0  0  0  0  0  0  0
   -0.7500    1.2990    0.0000 C   0  0  0  0  0  0  0  0  0  0  0  0
   -1.5000    0.0000    0.0000 C   0  0  0  0  0  0  0  0  0  0  0  0
   -0.7500   -1.2990    0.0000 C   0  0  0  0  0  0  0  0  0  0  0  0
   -1.2135   -2.7256    0.0000 C   0  0  0  0  0  0  0  0  0  0  0  0
   -0.0000   -3.6073    0.0000 C   0  0  0  0  0  0  0  0  0  0  0  0
    3.1447   -5.5632    0.0000 C   0  0  0  0  0  0  0  0  0  0  0  0
    4.4438   -4.8132    0.0000 C   0  0  0  0  0  0  0  0  0  0  0  0
    4.1319   -3.3459    0.0000 O   0  0  0  0  0  0  0  0  0  0  0  0
    2.6401   -3.1891    0.0000 C   0  0  0  0  0  0  0  0  0  0  0  0
    2.0300   -4.5595    0.0000 O   0  0  0  0  0  0  0  0  0  0  0  0
    4.6904    0.2088    0.0000 C   0  0  0  0  0  0  0  0  0  0  0  0
    4.3786   -1.2584    0.0000 N   0  0  0  0  0  0  0  0  0  0  0  0
    2.9520   -1.7219    0.0000 C   0  0  0  0  0  0  0  0  0  0  0  0
    1.8373   -0.7182    0.0000 C   0  0  0  0  0  0  0  0  0  0  0  0
    2.1491    0.7490    0.0000 C   0  0  0  0  0  0  0  0  0  0  0  0
    1.3104    1.9926    0.0000 O   0  0  0  0  0  0  0  0  0  0  0  0
    3.5757    1.2125    0.0000 N   0  0  0  0  0  0  0  0  0  0  0  0
    6.1170    0.6723    0.0000 C   0  0  0  0  0  0  0  0  0  0  0  0
    7.3305   -0.2093    0.0000 C   0  0  0  0  0  0  0  0  0  0  0  0
    8.5441    0.6723    0.0000 C   0  0  0  0  0  0  0  0  0  0  0  0
    8.0805    2.0989    0.0000 C   0  0  0  0  0  0  0  0  0  0  0  0
    6.5805    2.0989    0.0000 C   0  0  0  0  0  0  0  0  0  0  0  0
  1  2  1  0
  3  4  1  0
  4  5  2  0
  5  6  1  0
  6  7  2  0
  7  8  1  0
  8  9  2  0
  9 10  1  0
 10 11  1  0
 11  3  1  0
  9  4  1  0
 12 13  1  6
 13 14  1  0
 14 15  1  0
 15 16  1  0
 16 12  1  0
 17 18  2  0
 18 19  1  0
 19 20  2  0
 20 21  1  0
 21 22  2  0
 21 23  1  0
 23 17  1  0
 24 25  1  0
 25 26  1  0
 26 27  1  0
 27 28  1  0
 28 24  1  0
  1 11  1  0
  3 15  1  0
 15 19  1  1
 17 24  1  0
M  END

