
     RDKit          2D

 34 38  0  0  0  0  0  0  0  0999 V2000
    0.0000   -9.6073    0.0000 F   0  0  0  0  0  0  0  0  0  0  0  0
    0.0000   -5.1073    0.0000 C   0  0  0  0  0  0  0  0  0  0  0  0
   -1.2990   -5.8573    0.0000 C   0  0  0  0  0  0  0  0  0  0  0  0
   -1.2990   -7.3573    0.0000 C   0  0  0  0  0  0  0  0  0  0  0  0
    0.0000   -8.1073    0.0000 C   0  0  0  0  0  0  0  0  0  0  0  0
    1.2990   -7.3573    0.0000 C   0  0  0  0  0  0  0  0  0  0  0  0
    1.2990   -5.8573    0.0000 C   0  0  0  0  0  0  0  0  0  0  0  0
    1.2135   -2.7256    0.0000 N   0  0  0  0  0  0  0  0  0  0  0  0
    0.7500   -1.2990    0.0000 C   0  0  0  0  0  0  0  0  0  0  0  0
    1.5000    0.0000    0.0000 C   0  0  0  0  0  0  0  0  0  0  0  0
    0.7500    1.2990    0.0000 C   0  0  0  0  0  0  0  0  0  0  0  0
   -0.7500    1.2990    0.0000 C   0  0  0  0  0  0  0  0  0  0  0  0
   -1.5000    0.0000    0.0000 C   0  0  0  0  0  0  0  0  0  0  0  0
   -0.7500   -1.2990    0.0000 C   0  0  0  0  0  0  0  0  0  0  0  0
   -1.2135   -2.7256    0.0000 C   0  0  0  0  0  0  0  0  0  0  0  0
    0.0000   -3.6073    0.0000 C   0  0  0  0  0  0  0  0  0  0  0  0
    2.9520   -4.6564    0.0000 O   0  0  0  0  0  0  0  0  0  0  0  0
    2.6401   -3.1891    0.0000 C   0  0  0  0  0  0  0  0  0  0  0  0
    3.7548   -2.1855    0.0000 C   0  0  0  0  0  0  0  0  0  0  0  0
    7.9220    0.3346    0.0000 C   0  0  0  0  0  0  0  0  0  0  0  0
    6.5517   -0.2755    0.0000 C   0  0  0  0  0  0  0  0  0  0  0  0
    6.3949   -1.7673    0.0000 C   0  0  0  0  0  0  0  0  0  0  0  0
    5.1814   -2.6490    0.0000 C   0  0  0  0  0  0  0  0  0  0  0  0
    5.6449   -4.0756    0.0000 N   0  0  0  0  0  0  0  0  0  0  0  0
    7.1449   -4.0756    0.0000 N   0  0  0  0  0  0  0  0  0  0  0  0
    7.6085   -2.6490    0.0000 C   0  0  0  0  0  0  0  0  0  0  0  0
    8.9788   -2.0389    0.0000 C   0  0  0  0  0  0  0  0  0  0  0  0
    9.1356   -0.5471    0.0000 N   0  0  0  0  0  0  0  0  0  0  0  0
    5.9654    6.5733    0.0000 C   0  0  0  0  0  0  0  0  0  0  0  0
    5.8086    5.0815    0.0000 O   0  0  0  0  0  0  0  0  0  0  0  0
    7.0221    4.1998    0.0000 C   0  0  0  0  0  0  0  0  0  0  0  0
    6.8653    2.7080    0.0000 C   0  0  0  0  0  0  0  0  0  0  0  0
    8.0788    1.8264    0.0000 N   0  0  0  0  0  0  0  0  0  0  0  0
    9.4492    2.4365    0.0000 C   0  0  0  0  0  0  0  0  0  0  0  0
  2  3  2  0
  3  4  1  0
  4  5  2  0
  5  6  1  0
  6  7  2  0
  7  2  1  0
  8  9  1  0
  9 10  2  0
 10 11  1  0
 11 12  2  0
 12 13  1  0
 13 14  2  0
 14 15  1  0
 15 16  1  0
 16  8  1  0
 14  9  1  0
 17 18  2  0
 18 19  1  0
 20 21  2  0
 21 22  1  0
 22 23  1  0
 23 24  2  0
 24 25  1  0
 25 26  1  0
 26 27  1  0
 27 28  2  0
 28 20  1  0
 26 22  2  0
 29 30  1  0
 30 31  1  0
 31 32  1  0
 32 33  1  0
 33 34  1  0
  1  5  1  0
  2 16  1  0
  8 18  1  0
 19 23  1  0
 20 33  1  0
M  END

