
     RDKit          2D

 37 42  0  0  0  0  0  0  0  0999 V2000
   -3.5736   -1.2902    0.0000 N   0  0  0  0  0  0  0  0  0  0  0  0
   -3.8855    0.1771    0.0000 C   0  0  0  0  0  0  0  0  0  0  0  0
   -5.3120    0.6406    0.0000 C   0  0  0  0  0  0  0  0  0  0  0  0
   -6.4268   -0.3631    0.0000 O   0  0  0  0  0  0  0  0  0  0  0  0
   -6.1149   -1.8303    0.0000 C   0  0  0  0  0  0  0  0  0  0  0  0
   -4.6883   -2.2939    0.0000 C   0  0  0  0  0  0  0  0  0  0  0  0
    0.3943    1.2135    0.0000 C   0  0  0  0  0  0  0  0  0  0  0  0
    1.2760    0.0000    0.0000 C   0  0  0  0  0  0  0  0  0  0  0  0
    0.3943   -1.2135    0.0000 N   0  0  0  0  0  0  0  0  0  0  0  0
    0.7062   -2.6807    0.0000 C   0  0  0  0  0  0  0  0  0  0  0  0
   -0.4086   -3.6844    0.0000 C   0  0  0  0  0  0  0  0  0  0  0  0
   -1.8351   -3.2209    0.0000 N   0  0  0  0  0  0  0  0  0  0  0  0
   -2.1470   -1.7537    0.0000 C   0  0  0  0  0  0  0  0  0  0  0  0
   -1.0323   -0.7500    0.0000 C   0  0  0  0  0  0  0  0  0  0  0  0
   -1.0323    0.7500    0.0000 N   0  0  0  0  0  0  0  0  0  0  0  0
    0.5271   -8.0861    0.0000 C   0  0  0  0  0  0  0  0  0  0  0  0
   -0.8995   -7.6226    0.0000 C   0  0  0  0  0  0  0  0  0  0  0  0
   -1.2114   -6.1554    0.0000 N   0  0  0  0  0  0  0  0  0  0  0  0
   -0.0967   -5.1517    0.0000 C   0  0  0  0  0  0  0  0  0  0  0  0
    1.3299   -5.6152    0.0000 N   0  0  0  0  0  0  0  0  0  0  0  0
    1.6418   -7.0824    0.0000 C   0  0  0  0  0  0  0  0  0  0  0  0
    0.8389   -9.5533    0.0000 N   0  0  0  0  0  0  0  0  0  0  0  0
    0.5460    4.1073    0.0000 C   0  0  0  0  0  0  0  0  0  0  0  0
    1.9725    3.6438    0.0000 C   0  0  0  0  0  0  0  0  0  0  0  0
    0.8578    2.6401    0.0000 C   0  0  0  0  0  0  0  0  0  0  0  0
   -2.4651    7.4515    0.0000 N   0  0  0  0  0  0  0  0  0  0  0  0
   -0.9979    7.7634    0.0000 C   0  0  0  0  0  0  0  0  0  0  0  0
    0.0058    6.6486    0.0000 C   0  0  0  0  0  0  0  0  0  0  0  0
   -0.4577    5.2220    0.0000 N   0  0  0  0  0  0  0  0  0  0  0  0
   -1.9250    4.9102    0.0000 C   0  0  0  0  0  0  0  0  0  0  0  0
   -2.9287    6.0249    0.0000 C   0  0  0  0  0  0  0  0  0  0  0  0
   -3.5455   12.5341    0.0000 C   0  0  0  0  0  0  0  0  0  0  0  0
   -4.0090   11.1075    0.0000 N   0  0  0  0  0  0  0  0  0  0  0  0
   -5.4762   10.7956    0.0000 C   0  0  0  0  0  0  0  0  0  0  0  0
   -3.0053    9.9928    0.0000 C   0  0  0  0  0  0  0  0  0  0  0  0
   -3.4688    8.5662    0.0000 C   0  0  0  0  0  0  0  0  0  0  0  0
   -4.9360    8.2543    0.0000 O   0  0  0  0  0  0  0  0  0  0  0  0
  1  2  1  0
  2  3  1  0
  3  4  1  0
  4  5  1  0
  5  6  1  0
  6  1  1  0
  7  8  2  0
  8  9  1  0
  9 10  1  0
 10 11  2  0
 11 12  1  0
 12 13  2  0
 13 14  1  0
 14 15  2  0
 15  7  1  0
 14  9  1  0
 16 17  2  0
 17 18  1  0
 18 19  2  0
 19 20  1  0
 20 21  2  0
 21 16  1  0
 23 24  1  0
 24 25  1  0
 25 23  1  0
 26 27  1  0
 27 28  1  0
 28 29  1  0
 29 30  1  0
 30 31  1  0
 31 26  1  0
 32 33  1  0
 33 34  1  0
 33 35  1  0
 35 36  1  0
 36 37  2  0
  1 13  1  0
 11 19  1  0
 16 22  1  0
 25  7  1  1
 23 29  1  1
 26 36  1  0
M  END

