
     RDKit          2D

 29 32  0  0  0  0  0  0  0  0999 V2000
   -2.1595    1.8121    0.0000 C   0  0  0  0  0  0  0  0  0  0  0  0
    1.5000    0.0000    0.0000 N   0  0  0  0  0  0  0  0  0  0  0  0
    0.7500   -1.2990    0.0000 C   0  0  0  0  0  0  0  0  0  0  0  0
   -0.7500   -1.2990    0.0000 C   0  0  0  0  0  0  0  0  0  0  0  0
   -1.5000    0.0000    0.0000 C   0  0  0  0  0  0  0  0  0  0  0  0
   -0.7500    1.2990    0.0000 C   0  0  0  0  0  0  0  0  0  0  0  0
    0.7500    1.2990    0.0000 C   0  0  0  0  0  0  0  0  0  0  0  0
    1.1805    4.7665    0.0000 C   0  0  0  0  0  0  0  0  0  0  0  0
    0.0314    5.7307    0.0000 N   0  0  0  0  0  0  0  0  0  0  0  0
   -1.3781    5.2176    0.0000 C   0  0  0  0  0  0  0  0  0  0  0  0
   -1.6386    3.7404    0.0000 N   0  0  0  0  0  0  0  0  0  0  0  0
   -0.4895    2.7762    0.0000 C   0  0  0  0  0  0  0  0  0  0  0  0
    0.9200    3.2893    0.0000 N   0  0  0  0  0  0  0  0  0  0  0  0
   -3.9367    5.6688    0.0000 C   0  0  0  0  0  0  0  0  0  0  0  0
   -5.0858    6.6330    0.0000 C   0  0  0  0  0  0  0  0  0  0  0  0
   -4.8253    8.1102    0.0000 N   0  0  0  0  0  0  0  0  0  0  0  0
   -3.4158    8.6232    0.0000 C   0  0  0  0  0  0  0  0  0  0  0  0
   -2.2667    7.6590    0.0000 C   0  0  0  0  0  0  0  0  0  0  0  0
   -2.5272    6.1818    0.0000 C   0  0  0  0  0  0  0  0  0  0  0  0
   -1.7458   10.6135    0.0000 F   0  0  0  0  0  0  0  0  0  0  0  0
   -3.1553   10.1004    0.0000 C   0  0  0  0  0  0  0  0  0  0  0  0
   -4.3044   11.0646    0.0000 F   0  0  0  0  0  0  0  0  0  0  0  0
   -4.1972    4.1916    0.0000 N   0  0  0  0  0  0  0  0  0  0  0  0
    5.0156    5.3642    0.0000 C   0  0  0  0  0  0  0  0  0  0  0  0
    4.5026    6.7738    0.0000 C   0  0  0  0  0  0  0  0  0  0  0  0
    3.0035    6.7214    0.0000 O   0  0  0  0  0  0  0  0  0  0  0  0
    2.5900    5.2795    0.0000 C   0  0  0  0  0  0  0  0  0  0  0  0
    3.8336    4.4407    0.0000 N   0  0  0  0  0  0  0  0  0  0  0  0
    6.4575    4.9508    0.0000 C   0  0  0  0  0  0  0  0  0  0  0  0
  2  3  1  0
  3  4  1  0
  4  5  1  0
  5  6  1  0
  6  7  1  0
  7  2  1  0
  8  9  2  0
  9 10  1  0
 10 11  2  0
 11 12  1  0
 12 13  2  0
 13  8  1  0
 14 15  2  0
 15 16  1  0
 16 17  2  0
 17 18  1  0
 18 19  2  0
 19 14  1  0
 20 21  1  0
 21 22  1  0
 24 25  1  0
 25 26  1  0
 26 27  1  0
 27 28  2  0
 28 24  1  0
  1  6  1  0
  6 12  1  0
 10 19  1  0
 17 21  1  0
 14 23  1  0
  8 27  1  0
 24 29  1  6
M  END

