
     RDKit          2D

 32 35  0  0  0  0  0  0  0  0999 V2000
    7.2578   -4.5606    0.0000 N   0  0  0  0  0  0  0  0  0  0  0  0
    7.7954   -5.9610    0.0000 C   0  0  0  0  0  0  0  0  0  0  0  0
    9.1957   -5.4234    0.0000 C   0  0  0  0  0  0  0  0  0  0  0  0
    8.6582   -4.0231    0.0000 C   0  0  0  0  0  0  0  0  0  0  0  0
    4.6740   -4.8322    0.0000 C   0  0  0  0  0  0  0  0  0  0  0  0
    5.8875   -3.9505    0.0000 C   0  0  0  0  0  0  0  0  0  0  0  0
    2.0046   -4.9721    0.0000 C   0  0  0  0  0  0  0  0  0  0  0  0
    0.8899   -3.9684    0.0000 N   0  0  0  0  0  0  0  0  0  0  0  0
    1.5000   -2.5981    0.0000 C   0  0  0  0  0  0  0  0  0  0  0  0
    2.9918   -2.7549    0.0000 C   0  0  0  0  0  0  0  0  0  0  0  0
    3.3037   -4.2221    0.0000 N   0  0  0  0  0  0  0  0  0  0  0  0
    0.7500   -1.2990    0.0000 C   0  0  0  0  0  0  0  0  0  0  0  0
    1.5000    0.0000    0.0000 C   0  0  0  0  0  0  0  0  0  0  0  0
    0.7500    1.2990    0.0000 C   0  0  0  0  0  0  0  0  0  0  0  0
   -0.7500    1.2990    0.0000 C   0  0  0  0  0  0  0  0  0  0  0  0
   -1.5000    0.0000    0.0000 C   0  0  0  0  0  0  0  0  0  0  0  0
   -0.7500   -1.2990    0.0000 C   0  0  0  0  0  0  0  0  0  0  0  0
    0.4775   -7.0740    0.0000 C   0  0  0  0  0  0  0  0  0  0  0  0
    1.8478   -6.4639    0.0000 N   0  0  0  0  0  0  0  0  0  0  0  0
    3.0613   -7.3456    0.0000 C   0  0  0  0  0  0  0  0  0  0  0  0
    2.9046   -8.8373    0.0000 C   0  0  0  0  0  0  0  0  0  0  0  0
    2.7478  -10.3291    0.0000 C   0  0  0  0  0  0  0  0  0  0  0  0
    3.8045  -12.7026    0.0000 C   0  0  0  0  0  0  0  0  0  0  0  0
    3.6477  -14.1944    0.0000 C   0  0  0  0  0  0  0  0  0  0  0  0
    2.2774  -14.8045    0.0000 N   0  0  0  0  0  0  0  0  0  0  0  0
    1.0639  -13.9228    0.0000 C   0  0  0  0  0  0  0  0  0  0  0  0
    1.2206  -12.4310    0.0000 N   0  0  0  0  0  0  0  0  0  0  0  0
    2.5910  -11.8209    0.0000 C   0  0  0  0  0  0  0  0  0  0  0  0
    4.8612  -15.0760    0.0000 F   0  0  0  0  0  0  0  0  0  0  0  0
    6.3883  -12.9742    0.0000 N   0  0  0  0  0  0  0  0  0  0  0  0
    5.1748  -12.0925    0.0000 C   0  0  0  0  0  0  0  0  0  0  0  0
    5.3316  -10.6007    0.0000 O   0  0  0  0  0  0  0  0  0  0  0  0
  1  2  1  0
  2  3  1  0
  3  4  1  0
  4  1  1  0
  5  6  1  0
  7  8  2  0
  8  9  1  0
  9 10  2  0
 10 11  1  0
 11  7  1  0
 12 13  1  0
 13 14  1  0
 14 15  1  0
 15 16  1  0
 16 17  1  0
 17 12  1  0
 18 19  1  0
 19 20  1  0
 20 21  1  0
 21 22  3  0
 23 24  2  0
 24 25  1  0
 25 26  2  0
 26 27  1  0
 27 28  2  0
 28 23  1  0
 30 31  1  0
 31 32  2  0
  1  6  1  0
  5 11  1  0
  9 12  1  0
  7 19  1  0
 22 28  1  0
 24 29  1  0
 23 31  1  0
M  END

