
     RDKit          2D

 35 40  0  0  0  0  0  0  0  0999 V2000
    2.7760    0.0000    0.0000 N   0  0  0  0  0  0  0  0  0  0  0  0
    1.2760    0.0000    0.0000 C   0  0  0  0  0  0  0  0  0  0  0  0
    0.3943    1.2135    0.0000 C   0  0  0  0  0  0  0  0  0  0  0  0
   -1.0323    0.7500    0.0000 N   0  0  0  0  0  0  0  0  0  0  0  0
   -1.0323   -0.7500    0.0000 C   0  0  0  0  0  0  0  0  0  0  0  0
   -2.1470   -1.7537    0.0000 C   0  0  0  0  0  0  0  0  0  0  0  0
   -3.5736   -1.2902    0.0000 C   0  0  0  0  0  0  0  0  0  0  0  0
   -4.6883   -2.2939    0.0000 C   0  0  0  0  0  0  0  0  0  0  0  0
   -6.1149   -1.8303    0.0000 C   0  0  0  0  0  0  0  0  0  0  0  0
   -7.3284   -0.9487    0.0000 C   0  0  0  0  0  0  0  0  0  0  0  0
   -6.8649    0.4779    0.0000 C   0  0  0  0  0  0  0  0  0  0  0  0
   -5.3649    0.4779    0.0000 C   0  0  0  0  0  0  0  0  0  0  0  0
   -4.4832    1.6914    0.0000 N   0  0  0  0  0  0  0  0  0  0  0  0
   -3.8855    0.1771    0.0000 C   0  0  0  0  0  0  0  0  0  0  0  0
   -4.9014   -0.9487    0.0000 N   0  0  0  0  0  0  0  0  0  0  0  0
   -3.4748   -1.4122    0.0000 C   0  0  0  0  0  0  0  0  0  0  0  0
   -2.3601   -0.4085    0.0000 O   0  0  0  0  0  0  0  0  0  0  0  0
   -3.1629   -2.8794    0.0000 C   0  0  0  0  0  0  0  0  0  0  0  0
   -1.7363   -3.3429    0.0000 C   0  0  0  0  0  0  0  0  0  0  0  0
   -1.4245   -4.8102    0.0000 O   0  0  0  0  0  0  0  0  0  0  0  0
   -1.8351   -3.2209    0.0000 N   0  0  0  0  0  0  0  0  0  0  0  0
   -0.4086   -3.6844    0.0000 C   0  0  0  0  0  0  0  0  0  0  0  0
   -0.0967   -5.1517    0.0000 C   0  0  0  0  0  0  0  0  0  0  0  0
   -1.2114   -6.1554    0.0000 C   0  0  0  0  0  0  0  0  0  0  0  0
   -0.8995   -7.6226    0.0000 C   0  0  0  0  0  0  0  0  0  0  0  0
    0.5271   -8.0861    0.0000 C   0  0  0  0  0  0  0  0  0  0  0  0
    0.8389   -9.5533    0.0000 C   0  0  0  0  0  0  0  0  0  0  0  0
    2.2092  -10.1634    0.0000 C   0  0  0  0  0  0  0  0  0  0  0  0
    2.0524  -11.6552    0.0000 C   0  0  0  0  0  0  0  0  0  0  0  0
    0.5852  -11.9671    0.0000 C   0  0  0  0  0  0  0  0  0  0  0  0
   -0.1648  -10.6680    0.0000 N   0  0  0  0  0  0  0  0  0  0  0  0
    1.6418   -7.0824    0.0000 C   0  0  0  0  0  0  0  0  0  0  0  0
    1.3299   -5.6152    0.0000 N   0  0  0  0  0  0  0  0  0  0  0  0
    0.7062   -2.6807    0.0000 C   0  0  0  0  0  0  0  0  0  0  0  0
    0.3943   -1.2135    0.0000 N   0  0  0  0  0  0  0  0  0  0  0  0
  1  2  1  0
  2  3  2  0
  3  4  1  0
  4  5  2  0
  5  6  1  0
  7  6  1  6
  7  8  1  0
  9  8  1  6
  9 10  1  0
 10 11  1  0
 11 12  1  0
 12 13  1  6
 12 14  1  0
 12 15  1  0
 15 16  1  0
 16 17  2  0
 16 18  1  0
 18 19  1  0
 19 20  1  0
  6 21  2  0
 21 22  1  0
 22 23  1  0
 23 24  2  0
 24 25  1  0
 25 26  2  0
 26 27  1  0
 27 28  2  0
 28 29  1  0
 29 30  2  0
 30 31  1  0
 26 32  1  0
 32 33  2  0
 22 34  2  0
 34 35  1  0
 35  2  1  0
 35  5  1  0
 14  7  1  0
 33 23  1  0
 15  9  1  0
 31 27  1  0
M  END

