
     RDKit          2D

 33 37  0  0  0  0  0  0  0  0999 V2000
   -3.4593   -2.5134    0.0000 N   0  0  0  0  0  0  0  0  0  0  0  0
   -2.2458   -1.6317    0.0000 C   0  0  0  0  0  0  0  0  0  0  0  0
   -1.8351    3.2209    0.0000 C   0  0  0  0  0  0  0  0  0  0  0  0
   -0.4086    3.6844    0.0000 C   0  0  0  0  0  0  0  0  0  0  0  0
    0.7062    2.6807    0.0000 C   0  0  0  0  0  0  0  0  0  0  0  0
    0.3943    1.2135    0.0000 N   0  0  0  0  0  0  0  0  0  0  0  0
    1.2760    0.0000    0.0000 N   0  0  0  0  0  0  0  0  0  0  0  0
    0.3943   -1.2135    0.0000 C   0  0  0  0  0  0  0  0  0  0  0  0
   -1.0323   -0.7500    0.0000 C   0  0  0  0  0  0  0  0  0  0  0  0
   -1.0323    0.7500    0.0000 C   0  0  0  0  0  0  0  0  0  0  0  0
   -2.1470    1.7537    0.0000 N   0  0  0  0  0  0  0  0  0  0  0  0
    4.1831    6.5422    0.0000 C   0  0  0  0  0  0  0  0  0  0  0  0
    3.8712    5.0750    0.0000 C   0  0  0  0  0  0  0  0  0  0  0  0
    2.4446    4.6115    0.0000 C   0  0  0  0  0  0  0  0  0  0  0  0
    2.1328    3.1443    0.0000 O   0  0  0  0  0  0  0  0  0  0  0  0
    5.6097    7.0058    0.0000 N   0  0  0  0  0  0  0  0  0  0  0  0
    6.0732    8.4324    0.0000 C   0  0  0  0  0  0  0  0  0  0  0  0
    7.5732    8.4324    0.0000 C   0  0  0  0  0  0  0  0  0  0  0  0
    8.0367    7.0058    0.0000 C   0  0  0  0  0  0  0  0  0  0  0  0
    6.8232    6.1241    0.0000 C   0  0  0  0  0  0  0  0  0  0  0  0
   -1.7363    8.0899    0.0000 C   0  0  0  0  0  0  0  0  0  0  0  0
   -3.1066    8.7000    0.0000 C   0  0  0  0  0  0  0  0  0  0  0  0
   -4.3202    7.8183    0.0000 C   0  0  0  0  0  0  0  0  0  0  0  0
   -4.1634    6.3265    0.0000 C   0  0  0  0  0  0  0  0  0  0  0  0
   -5.1671    5.2118    0.0000 C   0  0  0  0  0  0  0  0  0  0  0  0
   -4.4171    3.9127    0.0000 C   0  0  0  0  0  0  0  0  0  0  0  0
   -2.9499    4.2246    0.0000 N   0  0  0  0  0  0  0  0  0  0  0  0
   -2.7931    5.7164    0.0000 C   0  0  0  0  0  0  0  0  0  0  0  0
   -1.5795    6.5981    0.0000 C   0  0  0  0  0  0  0  0  0  0  0  0
    2.0610    9.2431    0.0000 C   0  0  0  0  0  0  0  0  0  0  0  0
    0.8475    8.3614    0.0000 C   0  0  0  0  0  0  0  0  0  0  0  0
    1.0043    6.8696    0.0000 O   0  0  0  0  0  0  0  0  0  0  0  0
   -0.5228    8.9715    0.0000 N   0  0  0  0  0  0  0  0  0  0  0  0
  1  2  3  0
  3  4  1  0
  4  5  2  0
  5  6  1  0
  6  7  1  0
  7  8  2  0
  8  9  1  0
  9 10  2  0
 10 11  1  0
 11  3  2  0
 10  6  1  0
 12 13  1  0
 13 14  1  0
 14 15  1  0
 16 17  1  0
 17 18  1  0
 18 19  1  0
 19 20  1  0
 20 16  1  0
 21 22  2  0
 22 23  1  0
 23 24  2  0
 24 25  1  0
 25 26  2  0
 26 27  1  0
 27 28  1  0
 28 29  2  0
 29 21  1  0
 28 24  1  0
 30 31  1  0
 31 32  2  0
 31 33  1  0
  2  9  1  0
  5 15  1  0
 12 16  1  0
  3 27  1  0
 21 33  1  0
M  END

