
     RDKit          2D

 31 33  0  0  0  0  0  0  0  0999 V2000
   -3.0000    0.0000    0.0000 N   0  0  0  0  0  0  0  0  0  0  0  0
    0.7500   -1.2990    0.0000 C   0  0  0  0  0  0  0  0  0  0  0  0
    1.5000    0.0000    0.0000 N   0  0  0  0  0  0  0  0  0  0  0  0
    0.7500    1.2990    0.0000 C   0  0  0  0  0  0  0  0  0  0  0  0
   -0.7500    1.2990    0.0000 N   0  0  0  0  0  0  0  0  0  0  0  0
   -1.5000    0.0000    0.0000 C   0  0  0  0  0  0  0  0  0  0  0  0
   -0.7500   -1.2990    0.0000 N   0  0  0  0  0  0  0  0  0  0  0  0
    1.5000    2.5981    0.0000 C   0  0  0  0  0  0  0  0  0  0  0  0
    2.2500    3.8971    0.0000 N   0  0  0  0  0  0  0  0  0  0  0  0
    3.7500   -3.8971    0.0000 C   0  0  0  0  0  0  0  0  0  0  0  0
    3.0000   -5.1962    0.0000 C   0  0  0  0  0  0  0  0  0  0  0  0
    1.5000   -5.1962    0.0000 N   0  0  0  0  0  0  0  0  0  0  0  0
    0.7500   -3.8971    0.0000 C   0  0  0  0  0  0  0  0  0  0  0  0
    1.5000   -2.5981    0.0000 C   0  0  0  0  0  0  0  0  0  0  0  0
    3.0000   -2.5981    0.0000 C   0  0  0  0  0  0  0  0  0  0  0  0
   -1.5000   -5.1962    0.0000 O   0  0  0  0  0  0  0  0  0  0  0  0
   -0.7500   -3.8971    0.0000 C   0  0  0  0  0  0  0  0  0  0  0  0
   -5.2500   -3.8971    0.0000 C   0  0  0  0  0  0  0  0  0  0  0  0
   -6.0000   -5.1962    0.0000 C   0  0  0  0  0  0  0  0  0  0  0  0
   -5.2500   -6.4952    0.0000 N   0  0  0  0  0  0  0  0  0  0  0  0
   -3.7500   -6.4952    0.0000 C   0  0  0  0  0  0  0  0  0  0  0  0
   -3.0000   -5.1962    0.0000 C   0  0  0  0  0  0  0  0  0  0  0  0
   -3.7500   -3.8971    0.0000 N   0  0  0  0  0  0  0  0  0  0  0  0
   -3.0000   -7.7942    0.0000 N   0  0  0  0  0  0  0  0  0  0  0  0
   -3.7500   -9.0933    0.0000 S   0  0  0  0  0  0  0  0  0  0  0  0
   -4.5000  -10.3923    0.0000 C   0  0  0  0  0  0  0  0  0  0  0  0
   -2.4510   -9.8433    0.0000 O   0  0  0  0  0  0  0  0  0  0  0  0
   -5.0490   -8.3433    0.0000 O   0  0  0  0  0  0  0  0  0  0  0  0
   -6.0000   -2.5981    0.0000 O   0  0  0  0  0  0  0  0  0  0  0  0
    6.0000   -5.1962    0.0000 C   0  0  0  0  0  0  0  0  0  0  0  0
    5.2500   -3.8971    0.0000 O   0  0  0  0  0  0  0  0  0  0  0  0
  2  3  2  0
  3  4  1  0
  4  5  2  0
  5  6  1  0
  6  7  2  0
  7  2  1  0
  8  9  3  0
 10 11  2  0
 11 12  1  0
 12 13  2  0
 13 14  1  0
 14 15  2  0
 15 10  1  0
 16 17  1  0
 18 19  2  0
 19 20  1  0
 20 21  2  0
 21 22  1  0
 22 23  2  0
 23 18  1  0
 24 25  1  0
 25 26  1  0
 25 27  2  0
 25 28  2  0
 30 31  1  0
  1  6  1  0
  4  8  1  0
  2 14  1  0
 13 17  1  0
 16 22  1  0
 21 24  1  0
 18 29  1  0
 10 31  1  0
M  END

