
     RDKit          2D

 37 41  0  0  0  0  0  0  0  0999 V2000
    2.7534   -5.5905    0.0000 N   0  0  0  0  0  0  0  0  0  0  0  0
    1.8717   -6.8040    0.0000 C   0  0  0  0  0  0  0  0  0  0  0  0
   -0.6237   -7.7620    0.0000 C   0  0  0  0  0  0  0  0  0  0  0  0
   -1.9941   -7.1518    0.0000 N   0  0  0  0  0  0  0  0  0  0  0  0
   -1.8373   -5.6601    0.0000 C   0  0  0  0  0  0  0  0  0  0  0  0
   -0.3700   -5.3482    0.0000 N   0  0  0  0  0  0  0  0  0  0  0  0
    0.3800   -6.6472    0.0000 N   0  0  0  0  0  0  0  0  0  0  0  0
   -5.4933   -4.1162    0.0000 C   0  0  0  0  0  0  0  0  0  0  0  0
   -5.1814   -2.6490    0.0000 C   0  0  0  0  0  0  0  0  0  0  0  0
   -3.7548   -2.1855    0.0000 N   0  0  0  0  0  0  0  0  0  0  0  0
   -2.6401   -3.1891    0.0000 C   0  0  0  0  0  0  0  0  0  0  0  0
   -2.9520   -4.6564    0.0000 C   0  0  0  0  0  0  0  0  0  0  0  0
   -4.3786   -5.1199    0.0000 N   0  0  0  0  0  0  0  0  0  0  0  0
   -1.2135   -2.7256    0.0000 N   0  0  0  0  0  0  0  0  0  0  0  0
   -0.0000   -3.6073    0.0000 N   0  0  0  0  0  0  0  0  0  0  0  0
    1.2135   -2.7256    0.0000 N   0  0  0  0  0  0  0  0  0  0  0  0
    0.7500   -1.2990    0.0000 C   0  0  0  0  0  0  0  0  0  0  0  0
    1.5000    0.0000    0.0000 C   0  0  0  0  0  0  0  0  0  0  0  0
    0.7500    1.2990    0.0000 C   0  0  0  0  0  0  0  0  0  0  0  0
   -0.7500    1.2990    0.0000 C   0  0  0  0  0  0  0  0  0  0  0  0
   -1.5000    0.0000    0.0000 C   0  0  0  0  0  0  0  0  0  0  0  0
   -0.7500   -1.2990    0.0000 C   0  0  0  0  0  0  0  0  0  0  0  0
   -8.0346   -3.5760    0.0000 O   0  0  0  0  0  0  0  0  0  0  0  0
   -6.9199   -4.5797    0.0000 C   0  0  0  0  0  0  0  0  0  0  0  0
   -7.2317   -6.0469    0.0000 O   0  0  0  0  0  0  0  0  0  0  0  0
    0.3119  -12.1636    0.0000 N   0  0  0  0  0  0  0  0  0  0  0  0
   -1.1147  -11.7001    0.0000 C   0  0  0  0  0  0  0  0  0  0  0  0
   -1.4266  -10.2329    0.0000 C   0  0  0  0  0  0  0  0  0  0  0  0
   -0.3119   -9.2292    0.0000 C   0  0  0  0  0  0  0  0  0  0  0  0
    1.1147   -9.6927    0.0000 C   0  0  0  0  0  0  0  0  0  0  0  0
    1.4266  -11.1599    0.0000 C   0  0  0  0  0  0  0  0  0  0  0  0
   -1.2938  -17.1055    0.0000 C   0  0  0  0  0  0  0  0  0  0  0  0
   -0.1791  -16.1018    0.0000 N   0  0  0  0  0  0  0  0  0  0  0  0
    1.2475  -16.5653    0.0000 C   0  0  0  0  0  0  0  0  0  0  0  0
   -0.4910  -14.6345    0.0000 C   0  0  0  0  0  0  0  0  0  0  0  0
    0.6237  -13.6308    0.0000 C   0  0  0  0  0  0  0  0  0  0  0  0
    2.0503  -14.0944    0.0000 O   0  0  0  0  0  0  0  0  0  0  0  0
  1  2  1  0
  3  4  2  0
  4  5  1  0
  5  6  2  0
  6  7  1  0
  7  3  1  0
  8  9  2  0
  9 10  1  0
 10 11  2  0
 11 12  1  0
 12 13  2  0
 13  8  1  0
 14 15  1  0
 15 16  2  0
 16 17  1  0
 17 18  2  0
 18 19  1  0
 19 20  2  0
 20 21  1  0
 21 22  2  0
 22 14  1  0
 22 17  1  0
 23 24  2  0
 24 25  1  0
 26 27  1  0
 27 28  1  0
 28 29  1  0
 29 30  1  0
 30 31  1  0
 31 26  1  0
 32 33  1  0
 33 34  1  0
 33 35  1  0
 35 36  1  0
 36 37  2  0
  2  7  1  0
  5 12  1  0
 11 14  1  0
  8 24  1  0
  3 29  1  0
 26 36  1  0
M  END

