
     RDKit          2D

 31 35  0  0  0  0  0  0  0  0999 V2000
    3.7974   -2.4540    0.0000 Cl  0  0  0  0  0  0  0  0  0  0  0  0
   -1.2135   -2.7256    0.0000 N   0  0  0  0  0  0  0  0  0  0  0  0
   -0.7500   -1.2990    0.0000 C   0  0  0  0  0  0  0  0  0  0  0  0
    0.7500   -1.2990    0.0000 C   0  0  0  0  0  0  0  0  0  0  0  0
    1.2135   -2.7256    0.0000 C   0  0  0  0  0  0  0  0  0  0  0  0
    2.5838   -3.3357    0.0000 C   0  0  0  0  0  0  0  0  0  0  0  0
    2.7406   -4.8275    0.0000 C   0  0  0  0  0  0  0  0  0  0  0  0
    1.5271   -5.7092    0.0000 C   0  0  0  0  0  0  0  0  0  0  0  0
    0.1568   -5.0991    0.0000 C   0  0  0  0  0  0  0  0  0  0  0  0
    0.0000   -3.6073    0.0000 C   0  0  0  0  0  0  0  0  0  0  0  0
   -3.1447   -5.5632    0.0000 C   0  0  0  0  0  0  0  0  0  0  0  0
   -4.4438   -4.8132    0.0000 C   0  0  0  0  0  0  0  0  0  0  0  0
   -4.1319   -3.3459    0.0000 O   0  0  0  0  0  0  0  0  0  0  0  0
   -2.6401   -3.1891    0.0000 C   0  0  0  0  0  0  0  0  0  0  0  0
   -2.0300   -4.5595    0.0000 O   0  0  0  0  0  0  0  0  0  0  0  0
   -5.4933   -2.2621    0.0000 O   0  0  0  0  0  0  0  0  0  0  0  0
   -4.3786   -1.2584    0.0000 C   0  0  0  0  0  0  0  0  0  0  0  0
   -4.6904    0.2088    0.0000 C   0  0  0  0  0  0  0  0  0  0  0  0
   -3.5757    1.2125    0.0000 C   0  0  0  0  0  0  0  0  0  0  0  0
   -2.1491    0.7490    0.0000 N   0  0  0  0  0  0  0  0  0  0  0  0
   -1.8373   -0.7182    0.0000 C   0  0  0  0  0  0  0  0  0  0  0  0
   -2.9520   -1.7219    0.0000 N   0  0  0  0  0  0  0  0  0  0  0  0
   -3.8876    2.6797    0.0000 C   0  0  0  0  0  0  0  0  0  0  0  0
   -4.8913    3.7945    0.0000 C   0  0  0  0  0  0  0  0  0  0  0  0
   -3.4241    4.1063    0.0000 C   0  0  0  0  0  0  0  0  0  0  0  0
   -2.0164   -6.1236    0.0000 C   0  0  0  0  0  0  0  0  0  0  0  0
   -0.9017   -5.1199    0.0000 O   0  0  0  0  0  0  0  0  0  0  0  0
   -1.2135   -3.6527    0.0000 C   0  0  0  0  0  0  0  0  0  0  0  0
   -0.0988   -2.6490    0.0000 C   0  0  0  0  0  0  0  0  0  0  0  0
   -0.4107   -1.1818    0.0000 N   0  0  0  0  0  0  0  0  0  0  0  0
    0.7040   -0.1781    0.0000 C   0  0  0  0  0  0  0  0  0  0  0  0
  2  3  1  0
  3  4  1  0
  4  5  1  0
  5  6  2  0
  6  7  1  0
  7  8  2  0
  8  9  1  0
  9 10  2  0
 10  2  1  0
 10  5  1  0
 11 12  1  6
 12 13  1  0
 13 14  1  0
 14 15  1  0
 15 11  1  0
 16 17  2  0
 17 18  1  0
 18 19  2  0
 19 20  1  0
 20 21  2  0
 21 22  1  0
 22 17  1  0
 23 24  1  0
 24 25  1  0
 25 23  1  0
 26 27  1  0
 27 28  1  0
 28 29  1  0
 29 30  1  0
 30 31  1  0
  1  6  1  0
 14  2  1  1
 14 22  1  0
 19 23  1  0
 21 30  1  0
M  END

