
     RDKit          2D

 35 39  0  0  0  0  0  0  0  0999 V2000
   -2.1470    1.7537    0.0000 C   0  0  0  0  0  0  0  0  0  0  0  0
   -1.8351    3.2209    0.0000 N   0  0  0  0  0  0  0  0  0  0  0  0
   -0.4086    3.6844    0.0000 C   0  0  0  0  0  0  0  0  0  0  0  0
    0.7062    2.6807    0.0000 N   0  0  0  0  0  0  0  0  0  0  0  0
    0.3943    1.2135    0.0000 C   0  0  0  0  0  0  0  0  0  0  0  0
    1.2760    0.0000    0.0000 N   0  0  0  0  0  0  0  0  0  0  0  0
    0.3943   -1.2135    0.0000 C   0  0  0  0  0  0  0  0  0  0  0  0
   -1.0323   -0.7500    0.0000 C   0  0  0  0  0  0  0  0  0  0  0  0
   -1.0323    0.7500    0.0000 C   0  0  0  0  0  0  0  0  0  0  0  0
   -6.4268    0.3631    0.0000 C   0  0  0  0  0  0  0  0  0  0  0  0
   -5.3120   -0.6406    0.0000 C   0  0  0  0  0  0  0  0  0  0  0  0
   -3.8855   -0.1771    0.0000 C   0  0  0  0  0  0  0  0  0  0  0  0
   -3.5736    1.2902    0.0000 N   0  0  0  0  0  0  0  0  0  0  0  0
   -4.6883    2.2939    0.0000 C   0  0  0  0  0  0  0  0  0  0  0  0
   -6.1149    1.8303    0.0000 C   0  0  0  0  0  0  0  0  0  0  0  0
   -5.0183   -2.2857    0.0000 O   0  0  0  0  0  0  0  0  0  0  0  0
   -6.5174   -2.2334    0.0000 C   0  0  0  0  0  0  0  0  0  0  0  0
   -7.2216   -0.9090    0.0000 N   0  0  0  0  0  0  0  0  0  0  0  0
   -8.7207   -0.8566    0.0000 C   0  0  0  0  0  0  0  0  0  0  0  0
   -9.5156   -2.1287    0.0000 C   0  0  0  0  0  0  0  0  0  0  0  0
  -11.0147   -2.0763    0.0000 C   0  0  0  0  0  0  0  0  0  0  0  0
  -13.6688   -4.9085    0.0000 C   0  0  0  0  0  0  0  0  0  0  0  0
  -12.3967   -5.7034    0.0000 C   0  0  0  0  0  0  0  0  0  0  0  0
  -11.2477   -4.7392    0.0000 N   0  0  0  0  0  0  0  0  0  0  0  0
  -11.8096   -3.3484    0.0000 C   0  0  0  0  0  0  0  0  0  0  0  0
  -13.3059   -3.4530    0.0000 C   0  0  0  0  0  0  0  0  0  0  0  0
  -15.0596   -5.4704    0.0000 Cl  0  0  0  0  0  0  0  0  0  0  0  0
   -7.3123   -3.5054    0.0000 N   0  0  0  0  0  0  0  0  0  0  0  0
   -6.5111   -4.7735    0.0000 C   0  0  0  0  0  0  0  0  0  0  0  0
   -7.0030   -6.1906    0.0000 C   0  0  0  0  0  0  0  0  0  0  0  0
   -8.4176   -6.6895    0.0000 C   0  0  0  0  0  0  0  0  0  0  0  0
   -9.6896   -5.8947    0.0000 O   0  0  0  0  0  0  0  0  0  0  0  0
   -9.8613   -4.4045    0.0000 C   0  0  0  0  0  0  0  0  0  0  0  0
   -8.8033   -3.3412    0.0000 C   0  0  0  0  0  0  0  0  0  0  0  0
   -7.8175    0.9250    0.0000 F   0  0  0  0  0  0  0  0  0  0  0  0
  1  2  2  0
  2  3  1  0
  3  4  2  0
  4  5  1  0
  5  6  1  0
  6  7  1  0
  7  8  2  0
  8  9  1  0
  9  1  1  0
  9  5  2  0
 10 11  1  0
 11 12  1  0
 12 13  1  0
 13 14  1  0
 14 15  1  0
 15 10  1  0
 16 17  2  0
 17 18  1  0
 18 19  1  0
 19 20  1  0
 20 21  1  0
 22 23  2  0
 23 24  1  0
 24 25  1  0
 25 26  2  0
 26 22  1  0
 28 29  1  0
 29 30  1  0
 30 31  1  0
 31 32  1  0
 32 33  1  0
 33 34  1  0
 34 28  1  0
  1 13  1  0
 10 18  1  0
 21 25  1  0
 22 27  1  0
 17 28  1  0
 10 35  1  0
M  END

