
     RDKit          2D

 40 44  0  0  0  0  0  0  0  0999 V2000
    3.7500   -1.2990    0.0000 N   0  0  0  0  0  0  0  0  0  0  0  0
    3.0000    0.0000    0.0000 C   0  0  0  0  0  0  0  0  0  0  0  0
    3.7500    1.2990    0.0000 O   0  0  0  0  0  0  0  0  0  0  0  0
    1.5000    0.0000    0.0000 C   0  0  0  0  0  0  0  0  0  0  0  0
    0.7500   -1.2990    0.0000 C   0  0  0  0  0  0  0  0  0  0  0  0
    1.5000   -2.5981    0.0000 N   0  0  0  0  0  0  0  0  0  0  0  0
   -0.7500   -1.2990    0.0000 N   0  0  0  0  0  0  0  0  0  0  0  0
   -1.5000    0.0000    0.0000 C   0  0  0  0  0  0  0  0  0  0  0  0
   -0.7500    1.2990    0.0000 N   0  0  0  0  0  0  0  0  0  0  0  0
    0.7500    1.2990    0.0000 C   0  0  0  0  0  0  0  0  0  0  0  0
    1.5000    2.5981    0.0000 N   0  0  0  0  0  0  0  0  0  0  0  0
    3.0000    2.5981    0.0000 C   0  0  0  0  0  0  0  0  0  0  0  0
    3.7500    3.8971    0.0000 C   0  0  0  0  0  0  0  0  0  0  0  0
    3.0000    5.1962    0.0000 C   0  0  0  0  0  0  0  0  0  0  0  0
    1.5000    5.1962    0.0000 C   0  0  0  0  0  0  0  0  0  0  0  0
    0.7500    6.4952    0.0000 C   0  0  0  0  0  0  0  0  0  0  0  0
   -0.7418    6.6520    0.0000 N   0  0  0  0  0  0  0  0  0  0  0  0
   -1.0537    8.1192    0.0000 C   0  0  0  0  0  0  0  0  0  0  0  0
   -2.4240    8.7293    0.0000 C   0  0  0  0  0  0  0  0  0  0  0  0
   -3.7230    7.9793    0.0000 N   0  0  0  0  0  0  0  0  0  0  0  0
   -4.8377    8.9830    0.0000 C   0  0  0  0  0  0  0  0  0  0  0  0
   -6.3049    8.6711    0.0000 F   0  0  0  0  0  0  0  0  0  0  0  0
   -4.2276   10.3533    0.0000 C   0  0  0  0  0  0  0  0  0  0  0  0
   -2.7358   10.1965    0.0000 N   0  0  0  0  0  0  0  0  0  0  0  0
   -1.7321   11.3112    0.0000 O   0  0  0  0  0  0  0  0  0  0  0  0
   -2.1957   12.7378    0.0000 C   0  0  0  0  0  0  0  0  0  0  0  0
   -3.6223   12.2743    0.0000 F   0  0  0  0  0  0  0  0  0  0  0  0
   -0.7691   13.2014    0.0000 F   0  0  0  0  0  0  0  0  0  0  0  0
   -2.6592   14.1644    0.0000 C   0  0  0  0  0  0  0  0  0  0  0  0
   -4.1264   14.4763    0.0000 F   0  0  0  0  0  0  0  0  0  0  0  0
   -1.6555   15.2791    0.0000 F   0  0  0  0  0  0  0  0  0  0  0  0
    0.2454    8.8692    0.0000 C   0  0  0  0  0  0  0  0  0  0  0  0
    1.3601    7.8655    0.0000 N   0  0  0  0  0  0  0  0  0  0  0  0
    2.8273    8.1774    0.0000 N   0  0  0  0  0  0  0  0  0  0  0  0
    3.2909    9.6040    0.0000 C   0  0  0  0  0  0  0  0  0  0  0  0
    2.4092   10.8175    0.0000 C   0  0  0  0  0  0  0  0  0  0  0  0
    3.2909   12.0310    0.0000 C   0  0  0  0  0  0  0  0  0  0  0  0
    4.7174   11.5675    0.0000 C   0  0  0  0  0  0  0  0  0  0  0  0
    4.7174   10.0675    0.0000 C   0  0  0  0  0  0  0  0  0  0  0  0
    0.7500    3.8971    0.0000 C   0  0  0  0  0  0  0  0  0  0  0  0
  1  2  1  0
  2  3  2  0
  2  4  1  0
  4  5  2  0
  5  6  1  0
  5  7  1  0
  7  8  2  0
  8  9  1  0
  9 10  2  0
 10 11  1  0
 11 12  1  0
 12 13  1  0
 13 14  1  0
 14 15  1  0
 15 16  1  0
 16 17  2  0
 17 18  1  0
 18 19  1  0
 19 20  2  0
 20 21  1  0
 21 22  1  0
 21 23  2  0
 23 24  1  0
 24 25  1  0
 25 26  1  0
 26 27  1  0
 26 28  1  0
 26 29  1  0
 29 30  1  0
 29 31  1  0
 18 32  2  0
 32 33  1  0
 33 34  1  0
 34 35  1  0
 35 36  1  0
 36 37  1  0
 37 38  1  0
 38 39  1  0
 15 40  1  0
 10  4  1  0
 40 11  1  0
 33 16  1  0
 39 35  1  0
 24 19  1  0
M  ISO  1  22  18
M  END

