
     RDKit          2D

 44 49  0  0  0  0  0  0  0  0999 V2000
   -1.5000    2.5981    0.0000 F   0  0  0  0  0  0  0  0  0  0  0  0
    0.7500   -1.2990    0.0000 C   0  0  0  0  0  0  0  0  0  0  0  0
    1.5000    0.0000    0.0000 C   0  0  0  0  0  0  0  0  0  0  0  0
    0.7500    1.2990    0.0000 C   0  0  0  0  0  0  0  0  0  0  0  0
   -0.7500    1.2990    0.0000 C   0  0  0  0  0  0  0  0  0  0  0  0
   -1.5000    0.0000    0.0000 N   0  0  0  0  0  0  0  0  0  0  0  0
   -0.7500   -1.2990    0.0000 C   0  0  0  0  0  0  0  0  0  0  0  0
    3.7500   -3.8971    0.0000 C   0  0  0  0  0  0  0  0  0  0  0  0
    3.0000   -2.5981    0.0000 C   0  0  0  0  0  0  0  0  0  0  0  0
    1.5000   -2.5981    0.0000 C   0  0  0  0  0  0  0  0  0  0  0  0
    0.7500   -3.8971    0.0000 N   0  0  0  0  0  0  0  0  0  0  0  0
    1.5000   -5.1962    0.0000 C   0  0  0  0  0  0  0  0  0  0  0  0
    3.0000   -5.1962    0.0000 N   0  0  0  0  0  0  0  0  0  0  0  0
    7.5000   -5.1962    0.0000 N   0  0  0  0  0  0  0  0  0  0  0  0
    8.2500   -3.8971    0.0000 C   0  0  0  0  0  0  0  0  0  0  0  0
    7.5000   -2.5981    0.0000 C   0  0  0  0  0  0  0  0  0  0  0  0
    6.0000   -2.5981    0.0000 O   0  0  0  0  0  0  0  0  0  0  0  0
    5.2500   -3.8971    0.0000 C   0  0  0  0  0  0  0  0  0  0  0  0
    6.0000   -5.1962    0.0000 C   0  0  0  0  0  0  0  0  0  0  0  0
    7.6399   -7.8655    0.0000 C   0  0  0  0  0  0  0  0  0  0  0  0
    8.7546   -8.8692    0.0000 N   0  0  0  0  0  0  0  0  0  0  0  0
   10.0537   -8.1192    0.0000 C   0  0  0  0  0  0  0  0  0  0  0  0
    9.7418   -6.6520    0.0000 C   0  0  0  0  0  0  0  0  0  0  0  0
    8.2500   -6.4952    0.0000 N   0  0  0  0  0  0  0  0  0  0  0  0
   11.5808  -10.2211    0.0000 C   0  0  0  0  0  0  0  0  0  0  0  0
   11.4240   -8.7293    0.0000 C   0  0  0  0  0  0  0  0  0  0  0  0
   15.6917  -12.0514    0.0000 N   0  0  0  0  0  0  0  0  0  0  0  0
   15.5349  -10.5596    0.0000 C   0  0  0  0  0  0  0  0  0  0  0  0
   14.1646   -9.9495    0.0000 C   0  0  0  0  0  0  0  0  0  0  0  0
   12.9511  -10.8312    0.0000 N   0  0  0  0  0  0  0  0  0  0  0  0
   13.1079  -12.3230    0.0000 C   0  0  0  0  0  0  0  0  0  0  0  0
   14.4782  -12.9331    0.0000 C   0  0  0  0  0  0  0  0  0  0  0  0
   19.6459  -12.3899    0.0000 C   0  0  0  0  0  0  0  0  0  0  0  0
   19.8027  -13.8817    0.0000 C   0  0  0  0  0  0  0  0  0  0  0  0
   18.5891  -14.7634    0.0000 C   0  0  0  0  0  0  0  0  0  0  0  0
   17.2188  -14.1533    0.0000 C   0  0  0  0  0  0  0  0  0  0  0  0
   17.0620  -12.6615    0.0000 C   0  0  0  0  0  0  0  0  0  0  0  0
   18.2756  -11.7798    0.0000 C   0  0  0  0  0  0  0  0  0  0  0  0
   14.7918  -15.9167    0.0000 F   0  0  0  0  0  0  0  0  0  0  0  0
   16.0053  -15.0350    0.0000 C   0  0  0  0  0  0  0  0  0  0  0  0
   16.8870  -16.2485    0.0000 F   0  0  0  0  0  0  0  0  0  0  0  0
   15.1236  -13.8214    0.0000 F   0  0  0  0  0  0  0  0  0  0  0  0
   20.8594  -11.5083    0.0000 F   0  0  0  0  0  0  0  0  0  0  0  0
    6.1727   -8.1774    0.0000 N   0  0  0  0  0  0  0  0  0  0  0  0
  2  3  2  0
  3  4  1  0
  4  5  2  0
  5  6  1  0
  6  7  2  0
  7  2  1  0
  8  9  2  0
  9 10  1  0
 10 11  2  0
 11 12  1  0
 12 13  2  0
 13  8  1  0
 14 15  1  0
 15 16  1  0
 16 17  1  0
 17 18  1  0
 18 19  1  0
 19 14  1  0
 20 21  2  0
 21 22  1  0
 22 23  2  0
 23 24  1  0
 24 20  1  0
 25 26  1  0
 27 28  1  0
 28 29  1  0
 29 30  1  0
 30 31  1  0
 31 32  1  0
 32 27  1  0
 33 34  2  0
 34 35  1  0
 35 36  2  0
 36 37  1  0
 37 38  2  0
 38 33  1  0
 39 40  1  0
 40 41  1  0
 40 42  1  0
  1  5  1  0
  2 10  1  0
  8 18  1  0
 14 24  1  0
 22 26  1  0
 25 30  1  0
 27 37  1  0
 36 40  1  0
 33 43  1  0
 20 44  1  0
M  END

