
     RDKit          2D

 35 38  0  0  0  0  0  0  0  0999 V2000
   14.4525   -0.8909    0.0000 C   0  0  0  0  0  0  0  0  0  0  0  0
   14.6093   -2.3827    0.0000 C   0  0  0  0  0  0  0  0  0  0  0  0
   13.3958   -3.2644    0.0000 C   0  0  0  0  0  0  0  0  0  0  0  0
   13.5525   -4.7561    0.0000 N   0  0  0  0  0  0  0  0  0  0  0  0
   14.9229   -5.3663    0.0000 C   0  0  0  0  0  0  0  0  0  0  0  0
   16.1364   -4.4846    0.0000 C   0  0  0  0  0  0  0  0  0  0  0  0
   15.0797   -6.8580    0.0000 O   0  0  0  0  0  0  0  0  0  0  0  0
   12.3390   -5.6378    0.0000 C   0  0  0  0  0  0  0  0  0  0  0  0
   12.4958   -7.1296    0.0000 O   0  0  0  0  0  0  0  0  0  0  0  0
   10.9687   -5.0277    0.0000 N   0  0  0  0  0  0  0  0  0  0  0  0
   10.6568   -3.5605    0.0000 C   0  0  0  0  0  0  0  0  0  0  0  0
   11.6605   -2.4458    0.0000 O   0  0  0  0  0  0  0  0  0  0  0  0
    9.1651   -3.4037    0.0000 C   0  0  0  0  0  0  0  0  0  0  0  0
    8.5549   -4.7740    0.0000 C   0  0  0  0  0  0  0  0  0  0  0  0
    7.0877   -5.0859    0.0000 C   0  0  0  0  0  0  0  0  0  0  0  0
    6.4776   -6.4562    0.0000 N   0  0  0  0  0  0  0  0  0  0  0  0
    4.9858   -6.2994    0.0000 C   0  0  0  0  0  0  0  0  0  0  0  0
    3.9821   -7.4141    0.0000 C   0  0  0  0  0  0  0  0  0  0  0  0
    2.9784   -8.5289    0.0000 N   0  0  0  0  0  0  0  0  0  0  0  0
    4.6740   -4.8322    0.0000 C   0  0  0  0  0  0  0  0  0  0  0  0
    3.3037   -4.2221    0.0000 C   0  0  0  0  0  0  0  0  0  0  0  0
    2.0046   -4.9721    0.0000 C   0  0  0  0  0  0  0  0  0  0  0  0
    0.8899   -3.9684    0.0000 S   0  0  0  0  0  0  0  0  0  0  0  0
    1.5000   -2.5981    0.0000 C   0  0  0  0  0  0  0  0  0  0  0  0
    0.7500   -1.2990    0.0000 C   0  0  0  0  0  0  0  0  0  0  0  0
    1.5000    0.0000    0.0000 C   0  0  0  0  0  0  0  0  0  0  0  0
    0.7500    1.2990    0.0000 C   0  0  0  0  0  0  0  0  0  0  0  0
   -0.7500    1.2990    0.0000 C   0  0  0  0  0  0  0  0  0  0  0  0
   -1.5000    0.0000    0.0000 C   0  0  0  0  0  0  0  0  0  0  0  0
   -0.7500   -1.2990    0.0000 C   0  0  0  0  0  0  0  0  0  0  0  0
   -1.5000   -2.5981    0.0000 F   0  0  0  0  0  0  0  0  0  0  0  0
    2.9918   -2.7549    0.0000 N   0  0  0  0  0  0  0  0  0  0  0  0
    5.9730   -4.0822    0.0000 S   0  0  0  0  0  0  0  0  0  0  0  0
    9.6697   -5.7777    0.0000 C   0  0  0  0  0  0  0  0  0  0  0  0
    9.5129   -7.2695    0.0000 O   0  0  0  0  0  0  0  0  0  0  0  0
  1  2  1  0
  2  3  1  0
  3  4  1  0
  4  5  1  0
  5  6  1  0
  5  7  2  0
  4  8  1  0
  8  9  2  0
  8 10  1  0
 10 11  1  0
 11 12  2  0
 11 13  1  0
 13 14  2  0
 14 15  1  0
 15 16  2  0
 16 17  1  0
 17 18  1  0
 18 19  3  0
 17 20  2  0
 20 21  1  0
 21 22  2  0
 22 23  1  0
 23 24  1  0
 24 25  1  0
 25 26  2  0
 26 27  1  0
 27 28  2  0
 28 29  1  0
 29 30  2  0
 30 31  1  0
 24 32  2  0
 20 33  1  0
 14 34  1  0
 34 35  2  0
 34 10  1  0
 33 15  1  0
 32 21  1  0
 30 25  1  0
M  ISO  1  31  18
M  END

