
     RDKit          2D

 32 37  0  0  0  0  0  0  0  0999 V2000
  -16.4102   -3.4409    0.0000 C   0  0  0  0  0  0  0  0  0  0  0  0
  -14.9330   -3.7014    0.0000 N   0  0  0  0  0  0  0  0  0  0  0  0
  -12.0404   -0.2542    0.0000 C   0  0  0  0  0  0  0  0  0  0  0  0
  -13.5176    0.0063    0.0000 C   0  0  0  0  0  0  0  0  0  0  0  0
  -14.4818   -1.1428    0.0000 C   0  0  0  0  0  0  0  0  0  0  0  0
  -13.9688   -2.5523    0.0000 C   0  0  0  0  0  0  0  0  0  0  0  0
  -12.4916   -2.8128    0.0000 C   0  0  0  0  0  0  0  0  0  0  0  0
  -11.5274   -1.6637    0.0000 C   0  0  0  0  0  0  0  0  0  0  0  0
   -7.7459    2.9759    0.0000 N   0  0  0  0  0  0  0  0  0  0  0  0
   -8.1088    4.4313    0.0000 C   0  0  0  0  0  0  0  0  0  0  0  0
   -9.6051    4.5360    0.0000 C   0  0  0  0  0  0  0  0  0  0  0  0
  -10.1671    3.1452    0.0000 C   0  0  0  0  0  0  0  0  0  0  0  0
  -11.4391    2.3503    0.0000 C   0  0  0  0  0  0  0  0  0  0  0  0
  -11.0762    0.8949    0.0000 N   0  0  0  0  0  0  0  0  0  0  0  0
   -9.5799    0.7902    0.0000 C   0  0  0  0  0  0  0  0  0  0  0  0
   -9.0180    2.1810    0.0000 C   0  0  0  0  0  0  0  0  0  0  0  0
   -3.5736    1.2902    0.0000 C   0  0  0  0  0  0  0  0  0  0  0  0
   -3.7823    2.7756    0.0000 C   0  0  0  0  0  0  0  0  0  0  0  0
   -5.1731    3.3375    0.0000 C   0  0  0  0  0  0  0  0  0  0  0  0
   -6.3551    2.4140    0.0000 N   0  0  0  0  0  0  0  0  0  0  0  0
   -6.1464    0.9286    0.0000 C   0  0  0  0  0  0  0  0  0  0  0  0
   -4.7556    0.3667    0.0000 C   0  0  0  0  0  0  0  0  0  0  0  0
   -2.1470    1.7537    0.0000 C   0  0  0  0  0  0  0  0  0  0  0  0
   -1.8351    3.2209    0.0000 N   0  0  0  0  0  0  0  0  0  0  0  0
   -0.4086    3.6844    0.0000 C   0  0  0  0  0  0  0  0  0  0  0  0
    0.7062    2.6807    0.0000 N   0  0  0  0  0  0  0  0  0  0  0  0
    0.3943    1.2135    0.0000 C   0  0  0  0  0  0  0  0  0  0  0  0
    1.2760    0.0000    0.0000 N   0  0  0  0  0  0  0  0  0  0  0  0
    0.3943   -1.2135    0.0000 C   0  0  0  0  0  0  0  0  0  0  0  0
   -1.0323   -0.7500    0.0000 C   0  0  0  0  0  0  0  0  0  0  0  0
   -1.0323    0.7500    0.0000 C   0  0  0  0  0  0  0  0  0  0  0  0
   -2.8694   -0.0343    0.0000 I   0  0  0  0  0  0  0  0  0  0  0  0
  1  2  1  0
  3  4  2  0
  4  5  1  0
  5  6  2  0
  6  7  1  0
  7  8  2  0
  8  3  1  0
  9 10  1  0
 10 11  1  0
 11 12  1  0
 12 13  1  0
 13 14  1  0
 14 15  1  0
 15 16  1  0
 16  9  1  0
 16 12  1  0
 17 18  1  0
 18 19  1  0
 19 20  1  0
 20 21  1  0
 21 22  1  0
 22 17  1  0
 23 24  2  0
 24 25  1  0
 25 26  2  0
 26 27  1  0
 27 28  1  0
 28 29  1  0
 29 30  2  0
 30 31  1  0
 31 23  1  0
 31 27  2  0
  2  6  1  0
  3 14  1  0
  9 20  1  0
 17 23  1  0
 17 32  1  0
M  END

