
     RDKit          2D

 30 34  0  0  0  0  0  0  0  0999 V2000
   -0.0967    5.1517    0.0000 C   0  0  0  0  0  0  0  0  0  0  0  0
    1.3299    5.6152    0.0000 C   0  0  0  0  0  0  0  0  0  0  0  0
    1.6418    7.0824    0.0000 C   0  0  0  0  0  0  0  0  0  0  0  0
    0.5271    8.0861    0.0000 C   0  0  0  0  0  0  0  0  0  0  0  0
   -0.8995    7.6226    0.0000 C   0  0  0  0  0  0  0  0  0  0  0  0
   -1.2114    6.1554    0.0000 C   0  0  0  0  0  0  0  0  0  0  0  0
    2.1328    3.1443    0.0000 O   0  0  0  0  0  0  0  0  0  0  0  0
    0.7062    2.6807    0.0000 C   0  0  0  0  0  0  0  0  0  0  0  0
    0.3943    1.2135    0.0000 C   0  0  0  0  0  0  0  0  0  0  0  0
    1.2760    0.0000    0.0000 C   0  0  0  0  0  0  0  0  0  0  0  0
    0.3943   -1.2135    0.0000 C   0  0  0  0  0  0  0  0  0  0  0  0
   -1.0323   -0.7500    0.0000 C   0  0  0  0  0  0  0  0  0  0  0  0
   -1.0323    0.7500    0.0000 N   0  0  0  0  0  0  0  0  0  0  0  0
   -2.1470    1.7537    0.0000 N   0  0  0  0  0  0  0  0  0  0  0  0
   -1.8351    3.2209    0.0000 C   0  0  0  0  0  0  0  0  0  0  0  0
   -0.4086    3.6844    0.0000 N   0  0  0  0  0  0  0  0  0  0  0  0
   -2.6380    5.6918    0.0000 C   0  0  0  0  0  0  0  0  0  0  0  0
   -2.9499    4.2246    0.0000 C   0  0  0  0  0  0  0  0  0  0  0  0
   -4.3764    3.7611    0.0000 N   0  0  0  0  0  0  0  0  0  0  0  0
   -4.0353    7.0066    0.0000 O   0  0  0  0  0  0  0  0  0  0  0  0
   -5.3344    6.2566    0.0000 C   0  0  0  0  0  0  0  0  0  0  0  0
   -6.7047    6.8667    0.0000 N   0  0  0  0  0  0  0  0  0  0  0  0
   -7.7084    5.7520    0.0000 C   0  0  0  0  0  0  0  0  0  0  0  0
   -9.2084    5.7520    0.0000 N   0  0  0  0  0  0  0  0  0  0  0  0
   -9.9584    4.4529    0.0000 C   0  0  0  0  0  0  0  0  0  0  0  0
   -9.2084    3.1539    0.0000 C   0  0  0  0  0  0  0  0  0  0  0  0
   -7.7084    3.1539    0.0000 N   0  0  0  0  0  0  0  0  0  0  0  0
   -6.9584    4.4529    0.0000 C   0  0  0  0  0  0  0  0  0  0  0  0
   -5.4912    4.7648    0.0000 N   0  0  0  0  0  0  0  0  0  0  0  0
   -9.9584    1.8548    0.0000 N   0  0  0  0  0  0  0  0  0  0  0  0
  1  2  2  0
  2  3  1  0
  3  4  2  0
  4  5  1  0
  5  6  2  0
  6  1  1  0
  7  8  2  0
  8  9  1  0
  9 10  2  0
 10 11  1  0
 11 12  2  0
 12 13  1  0
 13 14  1  0
 14 15  2  0
 15 16  1  0
 16  8  1  0
 13  9  1  0
 18 17  1  6
 18 19  1  0
 20 21  2  0
 21 22  1  0
 22 23  1  0
 23 24  2  0
 24 25  1  0
 25 26  2  0
 26 27  1  0
 27 28  2  0
 28 29  1  0
 29 21  1  0
 28 23  1  0
  1 16  1  0
 15 18  1  0
 19 29  1  0
 26 30  1  0
M  END

