
     RDKit          2D

 39 44  0  0  0  0  0  0  0  0999 V2000
    1.5000    2.5981    0.0000 C   0  0  0  0  0  0  0  0  0  0  0  0
    0.8899    3.9684    0.0000 C   0  0  0  0  0  0  0  0  0  0  0  0
    2.0046    4.9721    0.0000 N   0  0  0  0  0  0  0  0  0  0  0  0
    3.3037    4.2221    0.0000 O   0  0  0  0  0  0  0  0  0  0  0  0
    2.9918    2.7549    0.0000 C   0  0  0  0  0  0  0  0  0  0  0  0
    1.5000    0.0000    0.0000 C   0  0  0  0  0  0  0  0  0  0  0  0
    0.7500   -1.2990    0.0000 N   0  0  0  0  0  0  0  0  0  0  0  0
   -0.7500   -1.2990    0.0000 C   0  0  0  0  0  0  0  0  0  0  0  0
   -1.5000    0.0000    0.0000 N   0  0  0  0  0  0  0  0  0  0  0  0
   -0.7500    1.2990    0.0000 C   0  0  0  0  0  0  0  0  0  0  0  0
    0.7500    1.2990    0.0000 C   0  0  0  0  0  0  0  0  0  0  0  0
   -3.0000    5.1962    0.0000 N   0  0  0  0  0  0  0  0  0  0  0  0
   -3.7500    3.8971    0.0000 C   0  0  0  0  0  0  0  0  0  0  0  0
   -3.0000    2.5981    0.0000 C   0  0  0  0  0  0  0  0  0  0  0  0
   -1.5000    2.5981    0.0000 C   0  0  0  0  0  0  0  0  0  0  0  0
   -0.7500    3.8971    0.0000 C   0  0  0  0  0  0  0  0  0  0  0  0
   -1.5000    5.1962    0.0000 C   0  0  0  0  0  0  0  0  0  0  0  0
   -5.2418    6.6520    0.0000 C   0  0  0  0  0  0  0  0  0  0  0  0
   -5.5537    8.1192    0.0000 N   0  0  0  0  0  0  0  0  0  0  0  0
   -4.2546    8.8692    0.0000 C   0  0  0  0  0  0  0  0  0  0  0  0
   -3.1399    7.8655    0.0000 C   0  0  0  0  0  0  0  0  0  0  0  0
   -3.7500    6.4952    0.0000 N   0  0  0  0  0  0  0  0  0  0  0  0
   -2.7275   10.9711    0.0000 C   0  0  0  0  0  0  0  0  0  0  0  0
   -4.0978   10.3610    0.0000 C   0  0  0  0  0  0  0  0  0  0  0  0
   -2.5707   12.4629    0.0000 N   0  0  0  0  0  0  0  0  0  0  0  0
   -1.4050   13.4069    0.0000 C   0  0  0  0  0  0  0  0  0  0  0  0
   -2.3490   14.5726    0.0000 C   0  0  0  0  0  0  0  0  0  0  0  0
   -3.5147   13.6286    0.0000 C   0  0  0  0  0  0  0  0  0  0  0  0
   -6.7856    2.9960    0.0000 C   0  0  0  0  0  0  0  0  0  0  0  0
   -8.2529    3.3078    0.0000 C   0  0  0  0  0  0  0  0  0  0  0  0
   -8.7164    4.7344    0.0000 N   0  0  0  0  0  0  0  0  0  0  0  0
   -7.7127    5.8491    0.0000 C   0  0  0  0  0  0  0  0  0  0  0  0
   -6.2455    5.5373    0.0000 C   0  0  0  0  0  0  0  0  0  0  0  0
   -5.7820    4.1107    0.0000 N   0  0  0  0  0  0  0  0  0  0  0  0
   -5.8586    0.1428    0.0000 F   0  0  0  0  0  0  0  0  0  0  0  0
   -6.3221    1.5694    0.0000 C   0  0  0  0  0  0  0  0  0  0  0  0
   -7.7487    1.1059    0.0000 F   0  0  0  0  0  0  0  0  0  0  0  0
   -4.8955    2.0329    0.0000 F   0  0  0  0  0  0  0  0  0  0  0  0
    3.0000    0.0000    0.0000 N   0  0  0  0  0  0  0  0  0  0  0  0
  1  2  1  0
  2  3  2  0
  3  4  1  0
  4  5  1  0
  5  1  2  0
  6  7  2  0
  7  8  1  0
  8  9  2  0
  9 10  1  0
 10 11  2  0
 11  6  1  0
 12 13  1  0
 13 14  1  0
 14 15  1  0
 15 16  1  0
 16 17  1  0
 17 12  1  0
 18 19  2  0
 19 20  1  0
 20 21  2  0
 21 22  1  0
 22 18  1  0
 23 24  1  0
 25 26  1  0
 26 27  1  0
 27 28  1  0
 28 25  1  0
 29 30  2  0
 30 31  1  0
 31 32  2  0
 32 33  1  0
 33 34  2  0
 34 29  1  0
 35 36  1  0
 36 37  1  0
 36 38  1  0
  1 11  1  0
 10 15  1  0
 12 22  1  0
 20 24  1  0
 23 25  1  0
 18 33  1  0
 29 36  1  0
  6 39  1  0
M  END

