
     RDKit          2D

 30 34  0  0  0  0  0  0  0  0999 V2000
    3.7500    1.2990    0.0000 C   0  0  0  0  0  0  0  0  0  0  0  0
    3.0000    0.0000    0.0000 N   0  0  0  0  0  0  0  0  0  0  0  0
   -1.2135   -2.7256    0.0000 N   0  0  0  0  0  0  0  0  0  0  0  0
   -0.0000   -3.6073    0.0000 C   0  0  0  0  0  0  0  0  0  0  0  0
    1.2135   -2.7256    0.0000 C   0  0  0  0  0  0  0  0  0  0  0  0
    0.7500   -1.2990    0.0000 C   0  0  0  0  0  0  0  0  0  0  0  0
    1.5000    0.0000    0.0000 C   0  0  0  0  0  0  0  0  0  0  0  0
    0.7500    1.2990    0.0000 C   0  0  0  0  0  0  0  0  0  0  0  0
   -0.7500    1.2990    0.0000 C   0  0  0  0  0  0  0  0  0  0  0  0
   -1.5000    0.0000    0.0000 C   0  0  0  0  0  0  0  0  0  0  0  0
   -0.7500   -1.2990    0.0000 C   0  0  0  0  0  0  0  0  0  0  0  0
   -3.1447   -5.5632    0.0000 C   0  0  0  0  0  0  0  0  0  0  0  0
   -4.4438   -4.8132    0.0000 C   0  0  0  0  0  0  0  0  0  0  0  0
   -4.1319   -3.3459    0.0000 O   0  0  0  0  0  0  0  0  0  0  0  0
   -2.6401   -3.1891    0.0000 C   0  0  0  0  0  0  0  0  0  0  0  0
   -2.0300   -4.5595    0.0000 O   0  0  0  0  0  0  0  0  0  0  0  0
   -2.6983    0.6918    0.0000 C   0  0  0  0  0  0  0  0  0  0  0  0
   -1.9483   -0.6072    0.0000 C   0  0  0  0  0  0  0  0  0  0  0  0
   -2.9520   -1.7219    0.0000 N   0  0  0  0  0  0  0  0  0  0  0  0
   -4.3223   -1.1118    0.0000 N   0  0  0  0  0  0  0  0  0  0  0  0
   -4.1655    0.3800    0.0000 N   0  0  0  0  0  0  0  0  0  0  0  0
   -2.0882    2.0621    0.0000 N   0  0  0  0  0  0  0  0  0  0  0  0
   -0.5964    2.2189    0.0000 C   0  0  0  0  0  0  0  0  0  0  0  0
    0.0137    3.5893    0.0000 C   0  0  0  0  0  0  0  0  0  0  0  0
   -0.8680    4.8028    0.0000 O   0  0  0  0  0  0  0  0  0  0  0  0
   -2.3597    4.6460    0.0000 C   0  0  0  0  0  0  0  0  0  0  0  0
   -2.9699    3.2757    0.0000 C   0  0  0  0  0  0  0  0  0  0  0  0
   -4.2015   -7.9366    0.0000 N   0  0  0  0  0  0  0  0  0  0  0  0
   -2.9879   -7.0549    0.0000 C   0  0  0  0  0  0  0  0  0  0  0  0
   -1.6176   -7.6651    0.0000 O   0  0  0  0  0  0  0  0  0  0  0  0
  1  2  1  0
  3  4  1  0
  4  5  1  0
  5  6  1  0
  6  7  2  0
  7  8  1  0
  8  9  2  0
  9 10  1  0
 10 11  2  0
 11  3  1  0
 11  6  1  0
 12 13  1  0
 13 14  1  0
 14 15  1  0
 15 16  1  0
 16 12  1  0
 17 18  2  0
 18 19  1  0
 19 20  1  0
 20 21  2  0
 21 17  1  0
 22 23  1  0
 23 24  1  0
 24 25  1  0
 25 26  1  0
 26 27  1  0
 27 22  1  0
 28 29  1  0
 29 30  2  0
  2  7  1  0
 15  3  1  1
 15 19  1  0
 17 22  1  0
 12 29  1  1
M  END

