
     RDKit          2D

 35 39  0  0  0  0  0  0  0  0999 V2000
   -7.5000   -5.1962    0.0000 C   0  0  0  0  0  0  0  0  0  0  0  0
   -6.0000   -5.1962    0.0000 C   0  0  0  0  0  0  0  0  0  0  0  0
   -5.2500   -3.8971    0.0000 C   0  0  0  0  0  0  0  0  0  0  0  0
   -3.7500   -3.8971    0.0000 N   0  0  0  0  0  0  0  0  0  0  0  0
   -1.5000   -2.5981    0.0000 C   0  0  0  0  0  0  0  0  0  0  0  0
   -3.0000   -2.5981    0.0000 C   0  0  0  0  0  0  0  0  0  0  0  0
    0.7500   -1.2990    0.0000 C   0  0  0  0  0  0  0  0  0  0  0  0
    1.5000    0.0000    0.0000 C   0  0  0  0  0  0  0  0  0  0  0  0
    0.7500    1.2990    0.0000 C   0  0  0  0  0  0  0  0  0  0  0  0
   -0.7500    1.2990    0.0000 C   0  0  0  0  0  0  0  0  0  0  0  0
   -1.5000    0.0000    0.0000 C   0  0  0  0  0  0  0  0  0  0  0  0
   -0.7500   -1.2990    0.0000 C   0  0  0  0  0  0  0  0  0  0  0  0
    1.5000    2.5981    0.0000 C   0  0  0  0  0  0  0  0  0  0  0  0
    0.8899    3.9684    0.0000 C   0  0  0  0  0  0  0  0  0  0  0  0
    2.0046    4.9721    0.0000 N   0  0  0  0  0  0  0  0  0  0  0  0
    3.3037    4.2221    0.0000 O   0  0  0  0  0  0  0  0  0  0  0  0
    2.9918    2.7549    0.0000 C   0  0  0  0  0  0  0  0  0  0  0  0
    3.0000   -5.1962    0.0000 N   0  0  0  0  0  0  0  0  0  0  0  0
    3.7500   -3.8971    0.0000 C   0  0  0  0  0  0  0  0  0  0  0  0
    3.0000   -2.5981    0.0000 C   0  0  0  0  0  0  0  0  0  0  0  0
    1.5000   -2.5981    0.0000 C   0  0  0  0  0  0  0  0  0  0  0  0
    0.7500   -3.8971    0.0000 C   0  0  0  0  0  0  0  0  0  0  0  0
    1.5000   -5.1962    0.0000 C   0  0  0  0  0  0  0  0  0  0  0  0
    3.1399   -7.8655    0.0000 C   0  0  0  0  0  0  0  0  0  0  0  0
    3.7500   -6.4952    0.0000 C   0  0  0  0  0  0  0  0  0  0  0  0
    5.2418   -6.6520    0.0000 N   0  0  0  0  0  0  0  0  0  0  0  0
    5.5537   -8.1192    0.0000 N   0  0  0  0  0  0  0  0  0  0  0  0
    4.2546   -8.8692    0.0000 C   0  0  0  0  0  0  0  0  0  0  0  0
    4.0978  -10.3610    0.0000 C   0  0  0  0  0  0  0  0  0  0  0  0
    0.7147   -5.6819    0.0000 O   0  0  0  0  0  0  0  0  0  0  0  0
    0.5580   -7.1737    0.0000 C   0  0  0  0  0  0  0  0  0  0  0  0
   -0.7411   -7.9237    0.0000 N   0  0  0  0  0  0  0  0  0  0  0  0
   -0.4292   -9.3909    0.0000 C   0  0  0  0  0  0  0  0  0  0  0  0
    1.0626   -9.5477    0.0000 C   0  0  0  0  0  0  0  0  0  0  0  0
    1.6727   -8.1774    0.0000 N   0  0  0  0  0  0  0  0  0  0  0  0
  1  2  1  0
  2  3  1  0
  3  4  1  0
  5  6  1  0
  7  8  2  0
  8  9  1  0
  9 10  2  0
 10 11  1  0
 11 12  2  0
 12  7  1  0
 13 14  1  0
 14 15  2  0
 15 16  1  0
 16 17  1  0
 17 13  2  0
 18 19  1  0
 19 20  1  0
 20 21  1  0
 21 22  1  0
 22 23  1  0
 23 18  1  0
 24 25  1  0
 25 26  2  0
 26 27  1  0
 27 28  1  0
 28 24  2  0
 30 31  2  0
 31 32  1  0
 32 33  1  0
 33 34  1  0
 34 35  1  0
 35 31  1  0
  4  6  1  0
  5 12  1  0
  9 13  1  0
  7 21  1  0
 18 25  1  0
 28 29  1  0
 24 35  1  0
M  END

