
     RDKit          2D

 30 35  0  0  0  0  0  0  0  0999 V2000
   -0.0000   -3.1820    0.0000 N   0  0  0  0  0  0  0  0  0  0  0  0
    1.0607   -2.1213    0.0000 C   0  0  0  0  0  0  0  0  0  0  0  0
   -0.0000   -1.0607    0.0000 C   0  0  0  0  0  0  0  0  0  0  0  0
    1.0607    0.0000    0.0000 C   0  0  0  0  0  0  0  0  0  0  0  0
    0.0000    1.0607    0.0000 O   0  0  0  0  0  0  0  0  0  0  0  0
   -1.0607    0.0000    0.0000 C   0  0  0  0  0  0  0  0  0  0  0  0
   -1.0607   -2.1213    0.0000 C   0  0  0  0  0  0  0  0  0  0  0  0
   -1.2990   -6.9320    0.0000 C   0  0  0  0  0  0  0  0  0  0  0  0
    0.0000   -7.6820    0.0000 N   0  0  0  0  0  0  0  0  0  0  0  0
    1.2990   -6.9320    0.0000 C   0  0  0  0  0  0  0  0  0  0  0  0
    1.2990   -5.4320    0.0000 N   0  0  0  0  0  0  0  0  0  0  0  0
   -0.0000   -4.6820    0.0000 C   0  0  0  0  0  0  0  0  0  0  0  0
   -1.2990   -5.4320    0.0000 N   0  0  0  0  0  0  0  0  0  0  0  0
    2.5981   -7.6820    0.0000 N   0  0  0  0  0  0  0  0  0  0  0  0
    3.9684   -7.0719    0.0000 C   0  0  0  0  0  0  0  0  0  0  0  0
    4.9721   -8.1866    0.0000 C   0  0  0  0  0  0  0  0  0  0  0  0
    3.5049   -7.8747    0.0000 C   0  0  0  0  0  0  0  0  0  0  0  0
    2.7549   -9.1738    0.0000 C   0  0  0  0  0  0  0  0  0  0  0  0
    3.7586  -10.2885    0.0000 C   0  0  0  0  0  0  0  0  0  0  0  0
    5.1289   -9.6784    0.0000 O   0  0  0  0  0  0  0  0  0  0  0  0
   -3.9684   -7.0719    0.0000 C   0  0  0  0  0  0  0  0  0  0  0  0
   -4.9721   -8.1866    0.0000 N   0  0  0  0  0  0  0  0  0  0  0  0
   -4.2221   -9.4856    0.0000 C   0  0  0  0  0  0  0  0  0  0  0  0
   -2.7549   -9.1738    0.0000 N   0  0  0  0  0  0  0  0  0  0  0  0
   -2.5981   -7.6820    0.0000 N   0  0  0  0  0  0  0  0  0  0  0  0
   -6.9341  -12.3831    0.0000 N   0  0  0  0  0  0  0  0  0  0  0  0
   -6.3240  -11.0127    0.0000 C   0  0  0  0  0  0  0  0  0  0  0  0
   -4.8322  -10.8559    0.0000 C   0  0  0  0  0  0  0  0  0  0  0  0
   -3.9505  -12.0695    0.0000 O   0  0  0  0  0  0  0  0  0  0  0  0
   -4.2803   -5.6047    0.0000 I   0  0  0  0  0  0  0  0  0  0  0  0
  1  2  1  0
  2  3  1  0
  3  4  1  0
  4  5  1  0
  5  6  1  0
  3  7  1  0
  7  1  1  0
  6  3  1  0
  8  9  2  0
  9 10  1  0
 10 11  2  0
 11 12  1  0
 12 13  2  0
 13  8  1  0
 14 15  1  0
 16 15  1  6
 16 17  1  0
 17 18  1  0
 18 19  1  6
 19 20  1  0
 18 14  1  0
 20 16  1  0
 21 22  2  0
 22 23  1  0
 23 24  2  0
 24 25  1  0
 25 21  1  0
 26 27  1  0
 27 28  1  0
 28 29  1  1
  1 12  1  0
 10 14  1  0
  8 25  1  0
 23 28  1  0
 21 30  1  0
M  END

