
     RDKit          2D

 32 37  0  0  0  0  0  0  0  0999 V2000
    5.1677   -3.0642    0.0000 C   0  0  0  0  0  0  0  0  0  0  0  0
    3.7974   -2.4540    0.0000 N   0  0  0  0  0  0  0  0  0  0  0  0
   -1.2135   -2.7256    0.0000 N   0  0  0  0  0  0  0  0  0  0  0  0
   -0.7500   -1.2990    0.0000 C   0  0  0  0  0  0  0  0  0  0  0  0
    0.7500   -1.2990    0.0000 C   0  0  0  0  0  0  0  0  0  0  0  0
    1.2135   -2.7256    0.0000 C   0  0  0  0  0  0  0  0  0  0  0  0
    2.5838   -3.3357    0.0000 C   0  0  0  0  0  0  0  0  0  0  0  0
    2.7406   -4.8275    0.0000 C   0  0  0  0  0  0  0  0  0  0  0  0
    1.5271   -5.7092    0.0000 C   0  0  0  0  0  0  0  0  0  0  0  0
    0.1568   -5.0991    0.0000 C   0  0  0  0  0  0  0  0  0  0  0  0
    0.0000   -3.6073    0.0000 C   0  0  0  0  0  0  0  0  0  0  0  0
   -3.1447   -5.5632    0.0000 C   0  0  0  0  0  0  0  0  0  0  0  0
   -4.4438   -4.8132    0.0000 C   0  0  0  0  0  0  0  0  0  0  0  0
   -4.1319   -3.3459    0.0000 O   0  0  0  0  0  0  0  0  0  0  0  0
   -2.6401   -3.1891    0.0000 C   0  0  0  0  0  0  0  0  0  0  0  0
   -2.0300   -4.5595    0.0000 O   0  0  0  0  0  0  0  0  0  0  0  0
   -1.0420   -0.7738    0.0000 O   0  0  0  0  0  0  0  0  0  0  0  0
   -1.8373   -0.7182    0.0000 C   0  0  0  0  0  0  0  0  0  0  0  0
   -2.1491    0.7490    0.0000 C   0  0  0  0  0  0  0  0  0  0  0  0
   -3.5757    1.2125    0.0000 C   0  0  0  0  0  0  0  0  0  0  0  0
   -4.6904    0.2088    0.0000 N   0  0  0  0  0  0  0  0  0  0  0  0
   -4.3786   -1.2584    0.0000 C   0  0  0  0  0  0  0  0  0  0  0  0
   -2.9520   -1.7219    0.0000 N   0  0  0  0  0  0  0  0  0  0  0  0
   -3.8876    2.6797    0.0000 C   0  0  0  0  0  0  0  0  0  0  0  0
   -3.4241    4.1063    0.0000 C   0  0  0  0  0  0  0  0  0  0  0  0
   -4.8913    3.7945    0.0000 C   0  0  0  0  0  0  0  0  0  0  0  0
   -5.4933   -2.2621    0.0000 N   0  0  0  0  0  0  0  0  0  0  0  0
   -5.1814   -3.7293    0.0000 C   0  0  0  0  0  0  0  0  0  0  0  0
   -6.2961   -4.7330    0.0000 C   0  0  0  0  0  0  0  0  0  0  0  0
   -7.7227   -4.2695    0.0000 O   0  0  0  0  0  0  0  0  0  0  0  0
   -8.0346   -2.8023    0.0000 C   0  0  0  0  0  0  0  0  0  0  0  0
   -6.9199   -1.7986    0.0000 C   0  0  0  0  0  0  0  0  0  0  0  0
  1  2  1  0
  3  4  1  0
  4  5  1  0
  5  6  1  0
  6  7  2  0
  7  8  1  0
  8  9  2  0
  9 10  1  0
 10 11  2  0
 11  3  1  0
 11  6  1  0
 12 13  1  6
 13 14  1  0
 14 15  1  0
 15 16  1  0
 16 12  1  0
 17 18  2  0
 18 19  1  0
 19 20  2  0
 20 21  1  0
 21 22  2  0
 22 23  1  0
 23 18  1  0
 24 25  1  0
 25 26  1  0
 26 24  1  0
 27 28  1  0
 28 29  1  0
 29 30  1  0
 30 31  1  0
 31 32  1  0
 32 27  1  0
  2  7  1  0
 15  3  1  1
 15 23  1  0
 20 24  1  0
 22 27  1  0
M  END

