
     RDKit          2D

 30 33  0  0  0  0  0  0  0  0999 V2000
   -0.0000   -3.6073    0.0000 C   0  0  0  0  0  0  0  0  0  0  0  0
    1.2135   -2.7256    0.0000 N   0  0  0  0  0  0  0  0  0  0  0  0
    0.7500   -1.2990    0.0000 C   0  0  0  0  0  0  0  0  0  0  0  0
    1.5000    0.0000    0.0000 C   0  0  0  0  0  0  0  0  0  0  0  0
    0.7500    1.2990    0.0000 C   0  0  0  0  0  0  0  0  0  0  0  0
   -0.7500    1.2990    0.0000 C   0  0  0  0  0  0  0  0  0  0  0  0
   -1.5000    0.0000    0.0000 N   0  0  0  0  0  0  0  0  0  0  0  0
   -0.7500   -1.2990    0.0000 C   0  0  0  0  0  0  0  0  0  0  0  0
   -1.2135   -2.7256    0.0000 N   0  0  0  0  0  0  0  0  0  0  0  0
   -0.0000   -8.1073    0.0000 C   0  0  0  0  0  0  0  0  0  0  0  0
    1.2990   -7.3573    0.0000 C   0  0  0  0  0  0  0  0  0  0  0  0
    1.2990   -5.8573    0.0000 C   0  0  0  0  0  0  0  0  0  0  0  0
   -0.0000   -5.1073    0.0000 N   0  0  0  0  0  0  0  0  0  0  0  0
   -1.2990   -5.8573    0.0000 C   0  0  0  0  0  0  0  0  0  0  0  0
   -1.2990   -7.3573    0.0000 C   0  0  0  0  0  0  0  0  0  0  0  0
    1.8665  -14.3736    0.0000 C   0  0  0  0  0  0  0  0  0  0  0  0
    0.9023  -13.2245    0.0000 O   0  0  0  0  0  0  0  0  0  0  0  0
    1.4153  -11.8150    0.0000 C   0  0  0  0  0  0  0  0  0  0  0  0
    0.4512  -10.6659    0.0000 C   0  0  0  0  0  0  0  0  0  0  0  0
    0.9642   -9.2564    0.0000 C   0  0  0  0  0  0  0  0  0  0  0  0
    2.4414   -8.9959    0.0000 N   0  0  0  0  0  0  0  0  0  0  0  0
    3.4056  -10.1450    0.0000 C   0  0  0  0  0  0  0  0  0  0  0  0
    2.8925  -11.5545    0.0000 O   0  0  0  0  0  0  0  0  0  0  0  0
    7.2862  -10.2223    0.0000 C   0  0  0  0  0  0  0  0  0  0  0  0
    7.0257   -8.7451    0.0000 C   0  0  0  0  0  0  0  0  0  0  0  0
    5.5403   -8.5363    0.0000 N   0  0  0  0  0  0  0  0  0  0  0  0
    4.8828   -9.8845    0.0000 C   0  0  0  0  0  0  0  0  0  0  0  0
    5.9618  -10.9265    0.0000 C   0  0  0  0  0  0  0  0  0  0  0  0
    8.6344  -10.8798    0.0000 Cl  0  0  0  0  0  0  0  0  0  0  0  0
   -0.9642   -9.2564    0.0000 I   0  0  0  0  0  0  0  0  0  0  0  0
  1  2  2  0
  2  3  1  0
  3  4  2  0
  4  5  1  0
  5  6  2  0
  6  7  1  0
  7  8  1  0
  8  9  2  0
  9  1  1  0
  8  3  1  0
 10 11  1  0
 11 12  1  0
 12 13  1  0
 13 14  1  0
 14 15  1  0
 15 10  1  0
 16 17  1  0
 17 18  1  0
 18 19  1  0
 19 20  1  0
 20 21  1  0
 21 22  1  0
 22 23  2  0
 24 25  2  0
 25 26  1  0
 26 27  1  0
 27 28  2  0
 28 24  1  0
  1 13  1  0
 10 20  1  0
 22 27  1  0
 24 29  1  0
 10 30  1  0
M  END

