
     RDKit          2D

 42 46  0  0  0  0  0  0  0  0999 V2000
    0.0000    5.1962    0.0000 N   0  0  0  0  0  0  0  0  0  0  0  0
   -0.7500    3.8971    0.0000 C   0  0  0  0  0  0  0  0  0  0  0  0
   -1.5000    2.5981    0.0000 C   0  0  0  0  0  0  0  0  0  0  0  0
   -0.7500    1.2990    0.0000 C   0  0  0  0  0  0  0  0  0  0  0  0
   -1.5000    0.0000    0.0000 C   0  0  0  0  0  0  0  0  0  0  0  0
   -3.0000    0.0000    0.0000 C   0  0  0  0  0  0  0  0  0  0  0  0
   -3.7500   -1.2990    0.0000 O   0  0  0  0  0  0  0  0  0  0  0  0
   -3.7500    1.2990    0.0000 C   0  0  0  0  0  0  0  0  0  0  0  0
   -3.0000    2.5981    0.0000 O   0  0  0  0  0  0  0  0  0  0  0  0
   -5.2500    1.2990    0.0000 C   0  0  0  0  0  0  0  0  0  0  0  0
   -6.0000    2.5981    0.0000 O   0  0  0  0  0  0  0  0  0  0  0  0
   -0.7500   -1.2990    0.0000 C   0  0  0  0  0  0  0  0  0  0  0  0
   -1.5000   -2.5981    0.0000 N   0  0  0  0  0  0  0  0  0  0  0  0
   -3.0000   -2.5981    0.0000 C   0  0  0  0  0  0  0  0  0  0  0  0
   -3.7500   -3.8971    0.0000 C   0  0  0  0  0  0  0  0  0  0  0  0
   -3.0000   -5.1962    0.0000 C   0  0  0  0  0  0  0  0  0  0  0  0
   -1.5000   -5.1962    0.0000 C   0  0  0  0  0  0  0  0  0  0  0  0
   -0.7500   -6.4952    0.0000 C   0  0  0  0  0  0  0  0  0  0  0  0
    0.7418   -6.6520    0.0000 N   0  0  0  0  0  0  0  0  0  0  0  0
    1.0537   -8.1192    0.0000 C   0  0  0  0  0  0  0  0  0  0  0  0
    2.4240   -8.7293    0.0000 C   0  0  0  0  0  0  0  0  0  0  0  0
    3.7230   -7.9793    0.0000 N   0  0  0  0  0  0  0  0  0  0  0  0
    4.8377   -8.9830    0.0000 C   0  0  0  0  0  0  0  0  0  0  0  0
    6.3049   -8.6711    0.0000 F   0  0  0  0  0  0  0  0  0  0  0  0
    4.2276  -10.3533    0.0000 C   0  0  0  0  0  0  0  0  0  0  0  0
    2.7358  -10.1965    0.0000 N   0  0  0  0  0  0  0  0  0  0  0  0
    1.7321  -11.3112    0.0000 C   0  0  0  0  0  0  0  0  0  0  0  0
    0.7284  -12.4260    0.0000 F   0  0  0  0  0  0  0  0  0  0  0  0
    2.8469  -12.3149    0.0000 F   0  0  0  0  0  0  0  0  0  0  0  0
    0.6174  -10.3076    0.0000 F   0  0  0  0  0  0  0  0  0  0  0  0
   -0.2454   -8.8692    0.0000 C   0  0  0  0  0  0  0  0  0  0  0  0
   -1.3601   -7.8655    0.0000 N   0  0  0  0  0  0  0  0  0  0  0  0
   -2.8273   -8.1774    0.0000 C   0  0  0  0  0  0  0  0  0  0  0  0
   -3.2909   -9.6040    0.0000 C   0  0  0  0  0  0  0  0  0  0  0  0
   -4.7581   -9.9158    0.0000 N   0  0  0  0  0  0  0  0  0  0  0  0
   -6.0161   -9.0989    0.0000 C   0  0  0  0  0  0  0  0  0  0  0  0
   -6.8330  -10.3569    0.0000 C   0  0  0  0  0  0  0  0  0  0  0  0
   -5.5750  -11.1738    0.0000 C   0  0  0  0  0  0  0  0  0  0  0  0
   -0.7500   -3.8971    0.0000 C   0  0  0  0  0  0  0  0  0  0  0  0
    0.7500   -1.2990    0.0000 N   0  0  0  0  0  0  0  0  0  0  0  0
    1.5000   -0.0000    0.0000 C   0  0  0  0  0  0  0  0  0  0  0  0
    0.7500    1.2990    0.0000 N   0  0  0  0  0  0  0  0  0  0  0  0
  1  2  3  0
  2  3  1  0
  3  4  1  0
  4  5  2  0
  5  6  1  0
  6  7  2  0
  6  8  1  0
  8  9  1  6
  8 10  1  0
 10 11  1  0
  5 12  1  0
 12 13  1  0
 13 14  1  0
 14 15  1  0
 15 16  1  0
 16 17  1  0
 17 18  1  0
 18 19  2  0
 19 20  1  0
 20 21  1  0
 21 22  2  0
 22 23  1  0
 23 24  1  0
 23 25  2  0
 25 26  1  0
 26 27  1  0
 27 28  1  0
 27 29  1  0
 27 30  1  0
 20 31  2  0
 31 32  1  0
 32 33  1  0
 33 34  1  0
 34 35  1  0
 35 36  1  0
 36 37  1  0
 37 38  1  0
 17 39  1  0
 12 40  2  0
 40 41  1  0
 41 42  2  0
 42  4  1  0
 39 13  1  0
 32 18  1  0
 38 35  1  0
 26 21  1  0
M  ISO  1  24  18
M  END

