
     RDKit          2D

 35 41  0  0  0  0  0  0  0  0999 V2000
   -1.0607   -2.1213    0.0000 N   0  0  0  0  0  0  0  0  0  0  0  0
   -0.0000   -3.1820    0.0000 C   0  0  0  0  0  0  0  0  0  0  0  0
    1.0607   -2.1213    0.0000 C   0  0  0  0  0  0  0  0  0  0  0  0
   -0.0000   -1.0607    0.0000 C   0  0  0  0  0  0  0  0  0  0  0  0
    1.0607    0.0000    0.0000 C   0  0  0  0  0  0  0  0  0  0  0  0
    0.0000    1.0607    0.0000 O   0  0  0  0  0  0  0  0  0  0  0  0
   -1.0607    0.0000    0.0000 C   0  0  0  0  0  0  0  0  0  0  0  0
   -3.3107   -3.4204    0.0000 N   0  0  0  0  0  0  0  0  0  0  0  0
   -2.5607   -2.1213    0.0000 C   0  0  0  0  0  0  0  0  0  0  0  0
   -5.6923   -4.6339    0.0000 C   0  0  0  0  0  0  0  0  0  0  0  0
   -7.1189   -4.1704    0.0000 N   0  0  0  0  0  0  0  0  0  0  0  0
   -7.1189   -2.6704    0.0000 C   0  0  0  0  0  0  0  0  0  0  0  0
   -5.6923   -2.2068    0.0000 C   0  0  0  0  0  0  0  0  0  0  0  0
   -4.8107   -3.4204    0.0000 N   0  0  0  0  0  0  0  0  0  0  0  0
  -10.7595   -0.0253    0.0000 C   0  0  0  0  0  0  0  0  0  0  0  0
   -9.3892    0.5848    0.0000 C   0  0  0  0  0  0  0  0  0  0  0  0
   -8.1757   -0.2969    0.0000 C   0  0  0  0  0  0  0  0  0  0  0  0
   -8.3324   -1.7887    0.0000 C   0  0  0  0  0  0  0  0  0  0  0  0
   -9.7028   -2.3988    0.0000 C   0  0  0  0  0  0  0  0  0  0  0  0
  -10.9163   -1.5171    0.0000 C   0  0  0  0  0  0  0  0  0  0  0  0
  -11.9730    0.8564    0.0000 F   0  0  0  0  0  0  0  0  0  0  0  0
   -6.4423   -8.1624    0.0000 N   0  0  0  0  0  0  0  0  0  0  0  0
   -4.9751   -8.4742    0.0000 C   0  0  0  0  0  0  0  0  0  0  0  0
   -4.2251   -7.1752    0.0000 C   0  0  0  0  0  0  0  0  0  0  0  0
   -3.7616   -5.7486    0.0000 C   0  0  0  0  0  0  0  0  0  0  0  0
   -5.2288   -6.0605    0.0000 C   0  0  0  0  0  0  0  0  0  0  0  0
   -6.5991   -6.6706    0.0000 C   0  0  0  0  0  0  0  0  0  0  0  0
   -9.7743  -10.1532    0.0000 C   0  0  0  0  0  0  0  0  0  0  0  0
   -8.7706  -11.2679    0.0000 C   0  0  0  0  0  0  0  0  0  0  0  0
   -7.4003  -10.6578    0.0000 N   0  0  0  0  0  0  0  0  0  0  0  0
   -7.5571   -9.1661    0.0000 N   0  0  0  0  0  0  0  0  0  0  0  0
   -9.0243   -8.8542    0.0000 C   0  0  0  0  0  0  0  0  0  0  0  0
   -9.6344   -7.4839    0.0000 N   0  0  0  0  0  0  0  0  0  0  0  0
  -12.1477   -9.0965    0.0000 C   0  0  0  0  0  0  0  0  0  0  0  0
  -11.2661  -10.3100    0.0000 C   0  0  0  0  0  0  0  0  0  0  0  0
  1  2  1  0
  2  3  1  0
  3  4  1  0
  4  5  1  0
  5  6  1  0
  6  7  1  0
  4  1  1  0
  7  4  1  0
  8  9  1  0
 10 11  2  0
 11 12  1  0
 12 13  2  0
 13 14  1  0
 14 10  1  0
 15 16  2  0
 16 17  1  0
 17 18  2  0
 18 19  1  0
 19 20  2  0
 20 15  1  0
 22 23  1  0
 24 23  1  6
 24 25  1  0
 25 26  1  0
 26 27  1  0
 27 22  1  0
 26 24  1  0
 28 29  1  0
 29 30  2  0
 30 31  1  0
 31 32  1  0
 32 28  2  0
 34 35  1  0
  1  9  1  0
  8 14  1  0
 12 18  1  0
 15 21  1  0
 26 10  1  1
 22 31  1  0
 32 33  1  0
 28 35  1  0
M  END

