
     RDKit          2D

 26 29  0  0  0  0  0  0  0  0999 V2000
  -13.7265    8.1943    0.0000 C   0  0  0  0  0  0  0  0  0  0  0  0
  -13.5178    6.7089    0.0000 N   0  0  0  0  0  0  0  0  0  0  0  0
   -9.3455    5.0232    0.0000 C   0  0  0  0  0  0  0  0  0  0  0  0
   -9.5542    6.5086    0.0000 C   0  0  0  0  0  0  0  0  0  0  0  0
  -10.9450    7.0705    0.0000 C   0  0  0  0  0  0  0  0  0  0  0  0
  -12.1270    6.1470    0.0000 C   0  0  0  0  0  0  0  0  0  0  0  0
  -11.9182    4.6616    0.0000 N   0  0  0  0  0  0  0  0  0  0  0  0
  -10.5275    4.0997    0.0000 C   0  0  0  0  0  0  0  0  0  0  0  0
   -7.7459    2.9759    0.0000 S   0  0  0  0  0  0  0  0  0  0  0  0
   -7.9547    4.4613    0.0000 S   0  0  0  0  0  0  0  0  0  0  0  0
   -3.5736    1.2902    0.0000 C   0  0  0  0  0  0  0  0  0  0  0  0
   -3.7823    2.7756    0.0000 C   0  0  0  0  0  0  0  0  0  0  0  0
   -5.1731    3.3375    0.0000 C   0  0  0  0  0  0  0  0  0  0  0  0
   -6.3551    2.4140    0.0000 N   0  0  0  0  0  0  0  0  0  0  0  0
   -6.1464    0.9286    0.0000 C   0  0  0  0  0  0  0  0  0  0  0  0
   -4.7556    0.3667    0.0000 C   0  0  0  0  0  0  0  0  0  0  0  0
   -2.1470    1.7537    0.0000 C   0  0  0  0  0  0  0  0  0  0  0  0
   -1.8351    3.2209    0.0000 C   0  0  0  0  0  0  0  0  0  0  0  0
   -0.4086    3.6844    0.0000 C   0  0  0  0  0  0  0  0  0  0  0  0
    0.7062    2.6807    0.0000 C   0  0  0  0  0  0  0  0  0  0  0  0
    0.3943    1.2135    0.0000 C   0  0  0  0  0  0  0  0  0  0  0  0
    1.2760    0.0000    0.0000 C   0  0  0  0  0  0  0  0  0  0  0  0
    0.3943   -1.2135    0.0000 C   0  0  0  0  0  0  0  0  0  0  0  0
   -1.0323   -0.7500    0.0000 N   0  0  0  0  0  0  0  0  0  0  0  0
   -1.0323    0.7500    0.0000 C   0  0  0  0  0  0  0  0  0  0  0  0
   -2.8694   -0.0343    0.0000 N   0  0  0  0  0  0  0  0  0  0  0  0
  1  2  1  0
  3  4  2  0
  4  5  1  0
  5  6  2  0
  6  7  1  0
  7  8  2  0
  8  3  1  0
  9 10  1  0
 11 12  1  0
 12 13  1  0
 13 14  1  0
 14 15  1  0
 15 16  1  0
 16 11  1  0
 17 18  2  0
 18 19  1  0
 19 20  2  0
 20 21  1  0
 21 22  1  0
 22 23  2  0
 23 24  1  0
 24 25  1  0
 25 17  1  0
 25 21  2  0
  2  6  1  0
  3 10  1  0
  9 14  1  0
 11 17  1  0
 11 26  1  0
M  END

