
     RDKit          2D

 26 28  0  0  0  0  0  0  0  0999 V2000
   -2.1470    1.7537    0.0000 C   0  0  0  0  0  0  0  0  0  0  0  0
   -1.8351    3.2209    0.0000 C   0  0  0  0  0  0  0  0  0  0  0  0
   -0.4086    3.6844    0.0000 C   0  0  0  0  0  0  0  0  0  0  0  0
    0.7062    2.6807    0.0000 C   0  0  0  0  0  0  0  0  0  0  0  0
    0.3943    1.2135    0.0000 C   0  0  0  0  0  0  0  0  0  0  0  0
    1.2760    0.0000    0.0000 N   0  0  0  0  0  0  0  0  0  0  0  0
    0.3943   -1.2135    0.0000 C   0  0  0  0  0  0  0  0  0  0  0  0
   -1.0323   -0.7500    0.0000 C   0  0  0  0  0  0  0  0  0  0  0  0
   -1.0323    0.7500    0.0000 C   0  0  0  0  0  0  0  0  0  0  0  0
   -6.0006    1.2902    0.0000 C   0  0  0  0  0  0  0  0  0  0  0  0
   -5.5371   -0.1364    0.0000 N   0  0  0  0  0  0  0  0  0  0  0  0
   -4.0371   -0.1364    0.0000 C   0  0  0  0  0  0  0  0  0  0  0  0
   -3.5736    1.2902    0.0000 N   0  0  0  0  0  0  0  0  0  0  0  0
   -4.7871    2.1718    0.0000 N   0  0  0  0  0  0  0  0  0  0  0  0
   -2.6123   -6.5176    0.0000 C   0  0  0  0  0  0  0  0  0  0  0  0
   -3.4940   -5.3041    0.0000 C   0  0  0  0  0  0  0  0  0  0  0  0
   -2.8839   -3.9338    0.0000 O   0  0  0  0  0  0  0  0  0  0  0  0
   -3.7655   -2.7203    0.0000 C   0  0  0  0  0  0  0  0  0  0  0  0
   -3.1554   -1.3499    0.0000 C   0  0  0  0  0  0  0  0  0  0  0  0
   -7.8907    0.3271    0.0000 C   0  0  0  0  0  0  0  0  0  0  0  0
   -7.4272    1.7537    0.0000 C   0  0  0  0  0  0  0  0  0  0  0  0
   -6.9637    3.1803    0.0000 C   0  0  0  0  0  0  0  0  0  0  0  0
   -8.8538    2.2172    0.0000 S   0  0  0  0  0  0  0  0  0  0  0  0
  -10.2804    2.6807    0.0000 C   0  0  0  0  0  0  0  0  0  0  0  0
   -8.3903    3.6438    0.0000 O   0  0  0  0  0  0  0  0  0  0  0  0
   -9.3173    0.7906    0.0000 O   0  0  0  0  0  0  0  0  0  0  0  0
  1  2  2  0
  2  3  1  0
  3  4  2  0
  4  5  1  0
  5  6  1  0
  6  7  1  0
  7  8  2  0
  8  9  1  0
  9  1  1  0
  9  5  2  0
 10 11  1  0
 11 12  2  0
 12 13  1  0
 13 14  1  0
 14 10  2  0
 15 16  1  0
 16 17  1  0
 17 18  1  0
 18 19  1  0
 20 21  1  0
 21 22  1  0
 21 23  1  0
 23 24  1  0
 23 25  2  0
 23 26  2  0
  1 13  1  0
 12 19  1  0
 10 21  1  0
M  END

