
     RDKit          2D

 28 31  0  0  0  0  0  0  0  0999 V2000
   -4.4918    2.5838    0.0000 O   0  0  0  0  0  0  0  0  0  0  0  0
   -3.8817    1.2135    0.0000 S   0  0  0  0  0  0  0  0  0  0  0  0
   -2.5826    1.9635    0.0000 O   0  0  0  0  0  0  0  0  0  0  0  0
   -5.3083    0.7500    0.0000 N   0  0  0  0  0  0  0  0  0  0  0  0
   -5.3083   -0.7500    0.0000 C   0  0  0  0  0  0  0  0  0  0  0  0
   -3.8817   -1.2135    0.0000 C   0  0  0  0  0  0  0  0  0  0  0  0
   -3.0000    0.0000    0.0000 N   0  0  0  0  0  0  0  0  0  0  0  0
    0.7500   -1.2990    0.0000 C   0  0  0  0  0  0  0  0  0  0  0  0
    1.5000    0.0000    0.0000 C   0  0  0  0  0  0  0  0  0  0  0  0
    0.7500    1.2990    0.0000 N   0  0  0  0  0  0  0  0  0  0  0  0
   -0.7500    1.2990    0.0000 C   0  0  0  0  0  0  0  0  0  0  0  0
   -1.5000    0.0000    0.0000 C   0  0  0  0  0  0  0  0  0  0  0  0
   -0.7500   -1.2990    0.0000 C   0  0  0  0  0  0  0  0  0  0  0  0
   -1.5000    2.5981    0.0000 Cl  0  0  0  0  0  0  0  0  0  0  0  0
    1.5000   -2.5981    0.0000 O   0  0  0  0  0  0  0  0  0  0  0  0
    0.2454   -6.2711    0.0000 N   0  0  0  0  0  0  0  0  0  0  0  0
   -1.0537   -5.5211    0.0000 C   0  0  0  0  0  0  0  0  0  0  0  0
   -0.7418   -4.0539    0.0000 C   0  0  0  0  0  0  0  0  0  0  0  0
    0.7500   -3.8971    0.0000 C   0  0  0  0  0  0  0  0  0  0  0  0
    1.3601   -5.2674    0.0000 C   0  0  0  0  0  0  0  0  0  0  0  0
    1.9293   -9.8648    0.0000 C   0  0  0  0  0  0  0  0  0  0  0  0
    0.7158  -10.7465    0.0000 N   0  0  0  0  0  0  0  0  0  0  0  0
   -0.6546  -10.1364    0.0000 C   0  0  0  0  0  0  0  0  0  0  0  0
   -0.8113   -8.6446    0.0000 N   0  0  0  0  0  0  0  0  0  0  0  0
    0.4022   -7.7629    0.0000 C   0  0  0  0  0  0  0  0  0  0  0  0
    1.7725   -8.3730    0.0000 N   0  0  0  0  0  0  0  0  0  0  0  0
   -1.8681  -11.0180    0.0000 F   0  0  0  0  0  0  0  0  0  0  0  0
    3.2996  -10.4749    0.0000 C   0  0  0  0  0  0  0  0  0  0  0  0
  1  2  2  0
  2  3  2  0
  2  4  1  0
  4  5  1  0
  5  6  1  0
  6  7  1  0
  7  2  1  0
  8  9  2  0
  9 10  1  0
 10 11  2  0
 11 12  1  0
 12 13  2  0
 13  8  1  0
 16 17  1  0
 17 18  2  0
 18 19  1  0
 19 20  2  0
 20 16  1  0
 21 22  2  0
 22 23  1  0
 23 24  2  0
 24 25  1  0
 25 26  2  0
 26 21  1  0
  7 12  1  0
 11 14  1  0
  8 15  1  0
 15 19  1  0
 16 25  1  0
 23 27  1  0
 21 28  1  0
M  END

