
     RDKit          2D

 43 48  0  0  0  0  0  0  0  0999 V2000
   -1.5000    2.5981    0.0000 F   0  0  0  0  0  0  0  0  0  0  0  0
    0.7500   -1.2990    0.0000 C   0  0  0  0  0  0  0  0  0  0  0  0
    1.5000    0.0000    0.0000 C   0  0  0  0  0  0  0  0  0  0  0  0
    0.7500    1.2990    0.0000 C   0  0  0  0  0  0  0  0  0  0  0  0
   -0.7500    1.2990    0.0000 C   0  0  0  0  0  0  0  0  0  0  0  0
   -1.5000    0.0000    0.0000 C   0  0  0  0  0  0  0  0  0  0  0  0
   -0.7500   -1.2990    0.0000 C   0  0  0  0  0  0  0  0  0  0  0  0
    3.7500   -3.8971    0.0000 C   0  0  0  0  0  0  0  0  0  0  0  0
    3.0000   -2.5981    0.0000 C   0  0  0  0  0  0  0  0  0  0  0  0
    1.5000   -2.5981    0.0000 C   0  0  0  0  0  0  0  0  0  0  0  0
    0.7500   -3.8971    0.0000 N   0  0  0  0  0  0  0  0  0  0  0  0
    1.5000   -5.1962    0.0000 C   0  0  0  0  0  0  0  0  0  0  0  0
    3.0000   -5.1962    0.0000 N   0  0  0  0  0  0  0  0  0  0  0  0
    8.2500   -3.8971    0.0000 N   0  0  0  0  0  0  0  0  0  0  0  0
    7.5000   -2.5981    0.0000 C   0  0  0  0  0  0  0  0  0  0  0  0
    6.0000   -2.5981    0.0000 C   0  0  0  0  0  0  0  0  0  0  0  0
    5.2500   -3.8971    0.0000 C   0  0  0  0  0  0  0  0  0  0  0  0
    6.0000   -5.1962    0.0000 C   0  0  0  0  0  0  0  0  0  0  0  0
    7.5000   -5.1962    0.0000 C   0  0  0  0  0  0  0  0  0  0  0  0
   10.6317   -5.1106    0.0000 C   0  0  0  0  0  0  0  0  0  0  0  0
   12.0583   -4.6471    0.0000 N   0  0  0  0  0  0  0  0  0  0  0  0
   12.0583   -3.1471    0.0000 C   0  0  0  0  0  0  0  0  0  0  0  0
   10.6317   -2.6836    0.0000 C   0  0  0  0  0  0  0  0  0  0  0  0
    9.7500   -3.8971    0.0000 N   0  0  0  0  0  0  0  0  0  0  0  0
   14.6421   -2.8755    0.0000 C   0  0  0  0  0  0  0  0  0  0  0  0
   13.2718   -2.2654    0.0000 O   0  0  0  0  0  0  0  0  0  0  0  0
   18.2827   -0.2305    0.0000 N   0  0  0  0  0  0  0  0  0  0  0  0
   16.9124    0.3796    0.0000 C   0  0  0  0  0  0  0  0  0  0  0  0
   15.6988   -0.5021    0.0000 C   0  0  0  0  0  0  0  0  0  0  0  0
   15.8556   -1.9939    0.0000 N   0  0  0  0  0  0  0  0  0  0  0  0
   17.2260   -2.6040    0.0000 C   0  0  0  0  0  0  0  0  0  0  0  0
   18.4395   -1.7223    0.0000 C   0  0  0  0  0  0  0  0  0  0  0  0
   21.8045    1.4012    0.0000 C   0  0  0  0  0  0  0  0  0  0  0  0
   20.9228    2.6147    0.0000 C   0  0  0  0  0  0  0  0  0  0  0  0
   19.4962    2.1512    0.0000 N   0  0  0  0  0  0  0  0  0  0  0  0
   19.4962    0.6512    0.0000 C   0  0  0  0  0  0  0  0  0  0  0  0
   20.9228    0.1876    0.0000 N   0  0  0  0  0  0  0  0  0  0  0  0
   17.0692    3.9145    0.0000 F   0  0  0  0  0  0  0  0  0  0  0  0
   18.2827    3.0328    0.0000 C   0  0  0  0  0  0  0  0  0  0  0  0
   19.1644    4.2464    0.0000 F   0  0  0  0  0  0  0  0  0  0  0  0
   17.4010    1.8193    0.0000 F   0  0  0  0  0  0  0  0  0  0  0  0
   23.3045    1.4012    0.0000 F   0  0  0  0  0  0  0  0  0  0  0  0
   10.1682   -6.5372    0.0000 N   0  0  0  0  0  0  0  0  0  0  0  0
  2  3  2  0
  3  4  1  0
  4  5  2  0
  5  6  1  0
  6  7  2  0
  7  2  1  0
  8  9  2  0
  9 10  1  0
 10 11  2  0
 11 12  1  0
 12 13  2  0
 13  8  1  0
 14 15  1  0
 15 16  1  0
 16 17  1  0
 17 18  1  0
 18 19  1  0
 19 14  1  0
 20 21  2  0
 21 22  1  0
 22 23  2  0
 23 24  1  0
 24 20  1  0
 25 26  1  0
 27 28  1  0
 28 29  1  0
 29 30  1  0
 30 31  1  0
 31 32  1  0
 32 27  1  0
 33 34  2  0
 34 35  1  0
 35 36  1  0
 36 37  2  0
 37 33  1  0
 38 39  1  0
 39 40  1  0
 39 41  1  0
  1  5  1  0
  2 10  1  0
  8 17  1  0
 14 24  1  0
 22 26  1  0
 25 30  1  0
 27 36  1  0
 35 39  1  0
 33 42  1  0
 20 43  1  0
M  END

