
     RDKit          2D

 38 42  0  0  0  0  0  0  0  0999 V2000
    0.7500   -1.2990    0.0000 N   0  0  0  0  0  0  0  0  0  0  0  0
    1.5000    0.0000    0.0000 C   0  0  0  0  0  0  0  0  0  0  0  0
    0.7500    1.2990    0.0000 C   0  0  0  0  0  0  0  0  0  0  0  0
   -0.7500    1.2990    0.0000 O   0  0  0  0  0  0  0  0  0  0  0  0
   -1.5000    0.0000    0.0000 C   0  0  0  0  0  0  0  0  0  0  0  0
   -0.7500   -1.2990    0.0000 C   0  0  0  0  0  0  0  0  0  0  0  0
    1.5000   -5.1962    0.0000 C   0  0  0  0  0  0  0  0  0  0  0  0
    3.0000   -5.1962    0.0000 C   0  0  0  0  0  0  0  0  0  0  0  0
    3.7500   -3.8971    0.0000 C   0  0  0  0  0  0  0  0  0  0  0  0
    3.0000   -2.5981    0.0000 N   0  0  0  0  0  0  0  0  0  0  0  0
    1.5000   -2.5981    0.0000 C   0  0  0  0  0  0  0  0  0  0  0  0
    0.7500   -3.8971    0.0000 N   0  0  0  0  0  0  0  0  0  0  0  0
    5.2500   -3.8971    0.0000 C   0  0  0  0  0  0  0  0  0  0  0  0
    6.7172   -3.5852    0.0000 C   0  0  0  0  0  0  0  0  0  0  0  0
    7.4672   -4.8843    0.0000 C   0  0  0  0  0  0  0  0  0  0  0  0
    6.4635   -5.9990    0.0000 C   0  0  0  0  0  0  0  0  0  0  0  0
    5.0932   -5.3889    0.0000 C   0  0  0  0  0  0  0  0  0  0  0  0
    5.0932   -2.4053    0.0000 S   0  0  0  0  0  0  0  0  0  0  0  0
    3.8900   -2.2362    0.0000 O   0  0  0  0  0  0  0  0  0  0  0  0
    6.5850   -2.2485    0.0000 O   0  0  0  0  0  0  0  0  0  0  0  0
    4.9364   -0.9135    0.0000 C   0  0  0  0  0  0  0  0  0  0  0  0
    6.1499   -0.0319    0.0000 C   0  0  0  0  0  0  0  0  0  0  0  0
    5.9931    1.4599    0.0000 C   0  0  0  0  0  0  0  0  0  0  0  0
    4.6228    2.0700    0.0000 C   0  0  0  0  0  0  0  0  0  0  0  0
    3.4093    1.1883    0.0000 C   0  0  0  0  0  0  0  0  0  0  0  0
    3.5661   -0.3034    0.0000 C   0  0  0  0  0  0  0  0  0  0  0  0
   -0.7500   -9.0933    0.0000 C   0  0  0  0  0  0  0  0  0  0  0  0
   -1.5000   -7.7942    0.0000 C   0  0  0  0  0  0  0  0  0  0  0  0
   -0.7500   -6.4952    0.0000 C   0  0  0  0  0  0  0  0  0  0  0  0
    0.7500   -6.4952    0.0000 C   0  0  0  0  0  0  0  0  0  0  0  0
    1.5000   -7.7942    0.0000 C   0  0  0  0  0  0  0  0  0  0  0  0
    0.7500   -9.0933    0.0000 N   0  0  0  0  0  0  0  0  0  0  0  0
   -1.5000   -5.1962    0.0000 C   0  0  0  0  0  0  0  0  0  0  0  0
   -2.2500   -3.8971    0.0000 F   0  0  0  0  0  0  0  0  0  0  0  0
   -2.7990   -5.9462    0.0000 F   0  0  0  0  0  0  0  0  0  0  0  0
   -0.2010   -4.4462    0.0000 F   0  0  0  0  0  0  0  0  0  0  0  0
   -2.2500  -11.6913    0.0000 C   0  0  0  0  0  0  0  0  0  0  0  0
   -1.5000  -10.3923    0.0000 C   0  0  0  0  0  0  0  0  0  0  0  0
  1  2  1  0
  2  3  1  0
  3  4  1  0
  4  5  1  0
  5  6  1  0
  6  1  1  0
  7  8  2  0
  8  9  1  0
  9 10  2  0
 10 11  1  0
 11 12  2  0
 12  7  1  0
 13 14  1  0
 14 15  1  0
 15 16  1  0
 16 17  1  0
 17 13  1  0
 18 19  2  0
 18 20  2  0
 21 22  2  0
 22 23  1  0
 23 24  2  0
 24 25  1  0
 25 26  2  0
 26 21  1  0
 27 28  2  0
 28 29  1  0
 29 30  2  0
 30 31  1  0
 31 32  2  0
 32 27  1  0
 33 34  1  0
 33 35  1  0
 33 36  1  0
 37 38  3  0
  1 11  1  0
  9 13  1  0
 13 18  1  0
 18 21  1  0
  7 30  1  0
 29 33  1  0
 27 38  1  0
M  END

