
     RDKit          2D

 36 41  0  0  0  0  0  0  0  0999 V2000
    0.2401   -3.9779    0.0000 C   0  0  0  0  0  0  0  0  0  0  0  0
   -0.6237   -7.7620    0.0000 C   0  0  0  0  0  0  0  0  0  0  0  0
   -1.9941   -7.1518    0.0000 C   0  0  0  0  0  0  0  0  0  0  0  0
   -1.8373   -5.6601    0.0000 C   0  0  0  0  0  0  0  0  0  0  0  0
   -0.3700   -5.3482    0.0000 N   0  0  0  0  0  0  0  0  0  0  0  0
    0.3800   -6.6472    0.0000 N   0  0  0  0  0  0  0  0  0  0  0  0
   -3.7548   -2.1855    0.0000 C   0  0  0  0  0  0  0  0  0  0  0  0
   -5.1814   -2.6490    0.0000 C   0  0  0  0  0  0  0  0  0  0  0  0
   -5.4933   -4.1162    0.0000 N   0  0  0  0  0  0  0  0  0  0  0  0
   -4.3786   -5.1199    0.0000 C   0  0  0  0  0  0  0  0  0  0  0  0
   -2.9520   -4.6564    0.0000 C   0  0  0  0  0  0  0  0  0  0  0  0
   -2.6401   -3.1891    0.0000 N   0  0  0  0  0  0  0  0  0  0  0  0
   -4.6904   -6.5871    0.0000 N   0  0  0  0  0  0  0  0  0  0  0  0
   -3.6867   -7.7018    0.0000 N   0  0  0  0  0  0  0  0  0  0  0  0
   -4.4367   -9.0009    0.0000 N   0  0  0  0  0  0  0  0  0  0  0  0
   -5.9040   -8.6890    0.0000 C   0  0  0  0  0  0  0  0  0  0  0  0
   -7.1175   -9.5707    0.0000 C   0  0  0  0  0  0  0  0  0  0  0  0
   -8.4878   -8.9606    0.0000 C   0  0  0  0  0  0  0  0  0  0  0  0
   -8.6446   -7.4688    0.0000 C   0  0  0  0  0  0  0  0  0  0  0  0
   -7.4311   -6.5871    0.0000 C   0  0  0  0  0  0  0  0  0  0  0  0
   -6.0607   -7.1972    0.0000 C   0  0  0  0  0  0  0  0  0  0  0  0
   -4.5577    0.2855    0.0000 O   0  0  0  0  0  0  0  0  0  0  0  0
   -3.4430   -0.7182    0.0000 C   0  0  0  0  0  0  0  0  0  0  0  0
   -2.0164   -0.2547    0.0000 O   0  0  0  0  0  0  0  0  0  0  0  0
    1.7900  -10.4427    0.0000 N   0  0  0  0  0  0  0  0  0  0  0  0
    0.6753  -11.4464    0.0000 C   0  0  0  0  0  0  0  0  0  0  0  0
   -0.6237  -10.6964    0.0000 C   0  0  0  0  0  0  0  0  0  0  0  0
   -1.7385   -9.6927    0.0000 C   0  0  0  0  0  0  0  0  0  0  0  0
   -0.3119   -9.2292    0.0000 C   0  0  0  0  0  0  0  0  0  0  0  0
    1.1799   -9.0724    0.0000 C   0  0  0  0  0  0  0  0  0  0  0  0
    5.6515  -13.9196    0.0000 C   0  0  0  0  0  0  0  0  0  0  0  0
    5.1880  -12.4930    0.0000 N   0  0  0  0  0  0  0  0  0  0  0  0
    6.1917  -11.3783    0.0000 C   0  0  0  0  0  0  0  0  0  0  0  0
    3.7208  -12.1812    0.0000 C   0  0  0  0  0  0  0  0  0  0  0  0
    3.2572  -10.7546    0.0000 C   0  0  0  0  0  0  0  0  0  0  0  0
    4.2609   -9.6399    0.0000 O   0  0  0  0  0  0  0  0  0  0  0  0
  2  3  1  0
  3  4  2  0
  4  5  1  0
  5  6  1  0
  6  2  2  0
  7  8  2  0
  8  9  1  0
  9 10  2  0
 10 11  1  0
 11 12  2  0
 12  7  1  0
 13 14  1  0
 14 15  2  0
 15 16  1  0
 16 17  2  0
 17 18  1  0
 18 19  2  0
 19 20  1  0
 20 21  2  0
 21 13  1  0
 21 16  1  0
 22 23  2  0
 23 24  1  0
 25 26  1  0
 27 26  1  1
 27 28  1  0
 28 29  1  0
 29 30  1  0
 30 25  1  0
 29 27  1  0
 31 32  1  0
 32 33  1  0
 32 34  1  0
 34 35  1  0
 35 36  2  0
  1  5  1  0
  4 11  1  0
 10 13  1  0
  7 23  1  0
 29  2  1  6
 25 35  1  0
M  END

