
     RDKit          2D

 40 45  0  0  0  0  0  0  0  0999 V2000
    0.1586   11.3773    0.0000 C   0  0  0  0  0  0  0  0  0  0  0  0
    1.1623   10.2626    0.0000 C   0  0  0  0  0  0  0  0  0  0  0  0
    0.6987    8.8360    0.0000 C   0  0  0  0  0  0  0  0  0  0  0  0
    1.2389    6.2947    0.0000 C   0  0  0  0  0  0  0  0  0  0  0  0
    2.2426    5.1800    0.0000 N   0  0  0  0  0  0  0  0  0  0  0  0
    3.7098    5.4919    0.0000 C   0  0  0  0  0  0  0  0  0  0  0  0
    4.1734    6.9185    0.0000 C   0  0  0  0  0  0  0  0  0  0  0  0
    3.1697    8.0332    0.0000 N   0  0  0  0  0  0  0  0  0  0  0  0
    1.7024    7.7213    0.0000 C   0  0  0  0  0  0  0  0  0  0  0  0
    5.7007    2.1599    0.0000 C   0  0  0  0  0  0  0  0  0  0  0  0
    6.8154    3.1636    0.0000 C   0  0  0  0  0  0  0  0  0  0  0  0
    6.2053    4.5340    0.0000 N   0  0  0  0  0  0  0  0  0  0  0  0
    4.7135    4.3772    0.0000 C   0  0  0  0  0  0  0  0  0  0  0  0
    4.4017    2.9099    0.0000 N   0  0  0  0  0  0  0  0  0  0  0  0
    7.7053    7.1320    0.0000 F   0  0  0  0  0  0  0  0  0  0  0  0
    6.9553    5.8330    0.0000 C   0  0  0  0  0  0  0  0  0  0  0  0
    8.2544    5.0830    0.0000 F   0  0  0  0  0  0  0  0  0  0  0  0
    5.6563    6.5830    0.0000 F   0  0  0  0  0  0  0  0  0  0  0  0
    8.7549   -2.0438    0.0000 C   0  0  0  0  0  0  0  0  0  0  0  0
    7.3846   -1.4337    0.0000 C   0  0  0  0  0  0  0  0  0  0  0  0
    7.2278    0.0581    0.0000 C   0  0  0  0  0  0  0  0  0  0  0  0
    5.8575    0.6682    0.0000 N   0  0  0  0  0  0  0  0  0  0  0  0
   -1.4418    3.8810    0.0000 N   0  0  0  0  0  0  0  0  0  0  0  0
   -2.4455    4.9957    0.0000 C   0  0  0  0  0  0  0  0  0  0  0  0
   -1.6955    6.2947    0.0000 C   0  0  0  0  0  0  0  0  0  0  0  0
   -0.6918    7.4094    0.0000 C   0  0  0  0  0  0  0  0  0  0  0  0
   -0.2283    5.9829    0.0000 C   0  0  0  0  0  0  0  0  0  0  0  0
   -0.0715    4.4911    0.0000 C   0  0  0  0  0  0  0  0  0  0  0  0
    1.5000    0.0000    0.0000 C   0  0  0  0  0  0  0  0  0  0  0  0
    0.7500   -1.2990    0.0000 N   0  0  0  0  0  0  0  0  0  0  0  0
   -0.7500   -1.2990    0.0000 C   0  0  0  0  0  0  0  0  0  0  0  0
   -1.5000    0.0000    0.0000 C   0  0  0  0  0  0  0  0  0  0  0  0
   -2.9672    0.3119    0.0000 N   0  0  0  0  0  0  0  0  0  0  0  0
   -3.1240    1.8037    0.0000 C   0  0  0  0  0  0  0  0  0  0  0  0
   -1.7537    2.4138    0.0000 N   0  0  0  0  0  0  0  0  0  0  0  0
   -0.7500    1.2990    0.0000 C   0  0  0  0  0  0  0  0  0  0  0  0
    0.7500    1.2990    0.0000 N   0  0  0  0  0  0  0  0  0  0  0  0
   -4.4231    2.5537    0.0000 N   0  0  0  0  0  0  0  0  0  0  0  0
    4.5000    0.0000    0.0000 N   0  0  0  0  0  0  0  0  0  0  0  0
    3.0000    0.0000    0.0000 C   0  0  0  0  0  0  0  0  0  0  0  0
  1  2  1  0
  2  3  1  0
  4  5  2  0
  5  6  1  0
  6  7  2  0
  7  8  1  0
  8  9  2  0
  9  4  1  0
 10 11  2  0
 11 12  1  0
 12 13  1  0
 13 14  2  0
 14 10  1  0
 15 16  1  0
 16 17  1  0
 16 18  1  0
 19 20  1  0
 20 21  1  0
 21 22  1  0
 23 24  1  0
 25 24  1  1
 25 26  1  0
 26 27  1  0
 27 28  1  0
 28 23  1  0
 27 25  1  0
 29 30  2  0
 30 31  1  0
 31 32  2  0
 32 33  1  0
 33 34  2  0
 34 35  1  0
 35 36  1  0
 36 37  2  0
 37 29  1  0
 36 32  1  0
 39 40  3  0
  3  9  1  0
  6 13  1  0
 12 16  1  0
 10 22  1  0
 27  4  1  6
 23 35  1  0
 34 38  1  0
 29 40  1  0
M  END

