
     RDKit          2D

 41 45  0  0  0  0  0  0  0  0999 V2000
    0.7500   -1.2990    0.0000 N   0  0  0  0  0  0  0  0  0  0  0  0
    1.5000    0.0000    0.0000 C   0  0  0  0  0  0  0  0  0  0  0  0
    0.7500    1.2990    0.0000 C   0  0  0  0  0  0  0  0  0  0  0  0
   -0.7500    1.2990    0.0000 O   0  0  0  0  0  0  0  0  0  0  0  0
   -1.5000    0.0000    0.0000 C   0  0  0  0  0  0  0  0  0  0  0  0
   -0.7500   -1.2990    0.0000 C   0  0  0  0  0  0  0  0  0  0  0  0
    0.7500   -3.8971    0.0000 N   0  0  0  0  0  0  0  0  0  0  0  0
    1.5000   -2.5981    0.0000 C   0  0  0  0  0  0  0  0  0  0  0  0
    2.9918   -5.3529    0.0000 C   0  0  0  0  0  0  0  0  0  0  0  0
    3.3037   -6.8202    0.0000 N   0  0  0  0  0  0  0  0  0  0  0  0
    2.0046   -7.5702    0.0000 C   0  0  0  0  0  0  0  0  0  0  0  0
    0.8899   -6.5665    0.0000 C   0  0  0  0  0  0  0  0  0  0  0  0
    1.5000   -5.1962    0.0000 N   0  0  0  0  0  0  0  0  0  0  0  0
    2.9046  -11.4354    0.0000 C   0  0  0  0  0  0  0  0  0  0  0  0
    1.5342  -12.0455    0.0000 C   0  0  0  0  0  0  0  0  0  0  0  0
    0.3207  -11.1638    0.0000 C   0  0  0  0  0  0  0  0  0  0  0  0
    0.4775   -9.6721    0.0000 C   0  0  0  0  0  0  0  0  0  0  0  0
    1.8478   -9.0619    0.0000 C   0  0  0  0  0  0  0  0  0  0  0  0
    3.0613   -9.9436    0.0000 C   0  0  0  0  0  0  0  0  0  0  0  0
   -0.7360   -8.7904    0.0000 O   0  0  0  0  0  0  0  0  0  0  0  0
   -2.1063   -9.4005    0.0000 C   0  0  0  0  0  0  0  0  0  0  0  0
   -3.3199   -8.5188    0.0000 C   0  0  0  0  0  0  0  0  0  0  0  0
   -4.6902   -9.1289    0.0000 O   0  0  0  0  0  0  0  0  0  0  0  0
   -5.9037   -8.2472    0.0000 C   0  0  0  0  0  0  0  0  0  0  0  0
   -7.2740   -8.8573    0.0000 C   0  0  0  0  0  0  0  0  0  0  0  0
   -8.4876   -7.9757    0.0000 F   0  0  0  0  0  0  0  0  0  0  0  0
    4.1181  -12.3171    0.0000 F   0  0  0  0  0  0  0  0  0  0  0  0
    6.0029   -2.0088    0.0000 N   0  0  0  0  0  0  0  0  0  0  0  0
    4.5356   -1.6969    0.0000 C   0  0  0  0  0  0  0  0  0  0  0  0
    3.5320   -2.8116    0.0000 C   0  0  0  0  0  0  0  0  0  0  0  0
    3.9955   -4.2382    0.0000 C   0  0  0  0  0  0  0  0  0  0  0  0
    5.4627   -4.5501    0.0000 C   0  0  0  0  0  0  0  0  0  0  0  0
    6.4664   -3.4354    0.0000 C   0  0  0  0  0  0  0  0  0  0  0  0
    8.4983   -1.0509    0.0000 N   0  0  0  0  0  0  0  0  0  0  0  0
    9.1085    0.3194    0.0000 N   0  0  0  0  0  0  0  0  0  0  0  0
    7.9937    1.3231    0.0000 C   0  0  0  0  0  0  0  0  0  0  0  0
    6.6947    0.5731    0.0000 N   0  0  0  0  0  0  0  0  0  0  0  0
    7.0066   -0.8941    0.0000 C   0  0  0  0  0  0  0  0  0  0  0  0
    8.1505    2.8149    0.0000 N   0  0  0  0  0  0  0  0  0  0  0  0
   10.7483   -2.3499    0.0000 C   0  0  0  0  0  0  0  0  0  0  0  0
    9.2483   -2.3499    0.0000 C   0  0  0  0  0  0  0  0  0  0  0  0
  1  2  1  0
  2  3  1  0
  3  4  1  0
  4  5  1  0
  5  6  1  0
  6  1  1  0
  7  8  1  0
  9 10  2  0
 10 11  1  0
 11 12  2  0
 12 13  1  0
 13  9  1  0
 14 15  2  0
 15 16  1  0
 16 17  2  0
 17 18  1  0
 18 19  2  0
 19 14  1  0
 20 21  1  0
 21 22  1  0
 22 23  1  0
 23 24  1  0
 24 25  1  0
 25 26  1  0
 28 29  1  0
 29 30  1  0
 30 31  1  0
 31 32  1  0
 32 33  1  0
 33 28  1  0
 34 35  1  0
 35 36  2  0
 36 37  1  0
 37 38  2  0
 38 34  1  0
 40 41  1  0
  1  8  1  0
  7 13  1  0
 11 18  1  0
 17 20  1  0
 14 27  1  0
  9 31  1  0
 28 38  1  0
 36 39  1  0
 34 41  1  0
M  ISO  1  27  18
M  END

