
     RDKit          2D

 27 30  0  0  0  0  0  0  0  0999 V2000
   -3.2931   -9.4018    0.0000 N   0  0  0  0  0  0  0  0  0  0  0  0
   -3.2931   -7.9018    0.0000 C   0  0  0  0  0  0  0  0  0  0  0  0
    0.3800   -6.6472    0.0000 C   0  0  0  0  0  0  0  0  0  0  0  0
   -0.3700   -5.3482    0.0000 N   0  0  0  0  0  0  0  0  0  0  0  0
   -1.8373   -5.6601    0.0000 C   0  0  0  0  0  0  0  0  0  0  0  0
   -1.9941   -7.1518    0.0000 N   0  0  0  0  0  0  0  0  0  0  0  0
   -0.6237   -7.7620    0.0000 N   0  0  0  0  0  0  0  0  0  0  0  0
   -2.6401   -3.1891    0.0000 C   0  0  0  0  0  0  0  0  0  0  0  0
   -3.7548   -2.1855    0.0000 N   0  0  0  0  0  0  0  0  0  0  0  0
   -5.1814   -2.6490    0.0000 C   0  0  0  0  0  0  0  0  0  0  0  0
   -5.4933   -4.1162    0.0000 C   0  0  0  0  0  0  0  0  0  0  0  0
   -4.3786   -5.1199    0.0000 N   0  0  0  0  0  0  0  0  0  0  0  0
   -2.9520   -4.6564    0.0000 C   0  0  0  0  0  0  0  0  0  0  0  0
   -6.2961   -1.6453    0.0000 N   0  0  0  0  0  0  0  0  0  0  0  0
   -1.2135   -2.7256    0.0000 C   0  0  0  0  0  0  0  0  0  0  0  0
   -0.0000   -3.6073    0.0000 C   0  0  0  0  0  0  0  0  0  0  0  0
    1.2135   -2.7256    0.0000 N   0  0  0  0  0  0  0  0  0  0  0  0
    0.7500   -1.2990    0.0000 C   0  0  0  0  0  0  0  0  0  0  0  0
    1.5000    0.0000    0.0000 C   0  0  0  0  0  0  0  0  0  0  0  0
    0.7500    1.2990    0.0000 C   0  0  0  0  0  0  0  0  0  0  0  0
   -0.7500    1.2990    0.0000 C   0  0  0  0  0  0  0  0  0  0  0  0
   -1.5000    0.0000    0.0000 C   0  0  0  0  0  0  0  0  0  0  0  0
   -0.7500   -1.2990    0.0000 N   0  0  0  0  0  0  0  0  0  0  0  0
    3.9736   -8.3311    0.0000 C   0  0  0  0  0  0  0  0  0  0  0  0
    2.4818   -8.1743    0.0000 N   0  0  0  0  0  0  0  0  0  0  0  0
    1.8717   -6.8040    0.0000 C   0  0  0  0  0  0  0  0  0  0  0  0
    2.7534   -5.5905    0.0000 O   0  0  0  0  0  0  0  0  0  0  0  0
  1  2  1  0
  3  4  1  0
  4  5  2  0
  5  6  1  0
  6  7  1  0
  7  3  2  0
  8  9  2  0
  9 10  1  0
 10 11  2  0
 11 12  1  0
 12 13  2  0
 13  8  1  0
 15 16  2  0
 16 17  1  0
 17 18  2  0
 18 19  1  0
 19 20  2  0
 20 21  1  0
 21 22  2  0
 22 23  1  0
 23 15  1  0
 23 18  1  0
 24 25  1  0
 25 26  1  0
 26 27  2  0
  2  6  1  0
  5 13  1  0
 10 14  1  0
  8 15  1  0
  3 26  1  0
M  END

