
     RDKit          2D

 39 43  0  0  0  0  0  0  0  0999 V2000
    7.7282   -9.0360    0.0000 C   0  0  0  0  0  0  0  0  0  0  0  0
    6.3579   -8.4259    0.0000 N   0  0  0  0  0  0  0  0  0  0  0  0
    5.1443   -9.3075    0.0000 C   0  0  0  0  0  0  0  0  0  0  0  0
    6.2011   -6.9341    0.0000 C   0  0  0  0  0  0  0  0  0  0  0  0
    4.8308   -6.3240    0.0000 C   0  0  0  0  0  0  0  0  0  0  0  0
    4.6740   -4.8322    0.0000 O   0  0  0  0  0  0  0  0  0  0  0  0
    3.3037   -4.2221    0.0000 N   0  0  0  0  0  0  0  0  0  0  0  0
    2.9918   -2.7549    0.0000 C   0  0  0  0  0  0  0  0  0  0  0  0
    1.5000   -2.5981    0.0000 C   0  0  0  0  0  0  0  0  0  0  0  0
    0.7500   -1.2990    0.0000 C   0  0  0  0  0  0  0  0  0  0  0  0
    1.5000    0.0000    0.0000 C   0  0  0  0  0  0  0  0  0  0  0  0
    0.7500    1.2990    0.0000 C   0  0  0  0  0  0  0  0  0  0  0  0
    1.5000    2.5981    0.0000 F   0  0  0  0  0  0  0  0  0  0  0  0
   -0.7500    1.2990    0.0000 C   0  0  0  0  0  0  0  0  0  0  0  0
   -1.5000    0.0000    0.0000 C   0  0  0  0  0  0  0  0  0  0  0  0
   -0.7500   -1.2990    0.0000 C   0  0  0  0  0  0  0  0  0  0  0  0
   -1.5000   -2.5981    0.0000 C   0  0  0  0  0  0  0  0  0  0  0  0
   -2.2500   -3.8971    0.0000 F   0  0  0  0  0  0  0  0  0  0  0  0
   -2.7990   -1.8481    0.0000 F   0  0  0  0  0  0  0  0  0  0  0  0
   -0.2010   -3.3481    0.0000 F   0  0  0  0  0  0  0  0  0  0  0  0
    0.8899   -3.9684    0.0000 N   0  0  0  0  0  0  0  0  0  0  0  0
    2.0046   -4.9721    0.0000 C   0  0  0  0  0  0  0  0  0  0  0  0
    1.8478   -6.4639    0.0000 C   0  0  0  0  0  0  0  0  0  0  0  0
    3.3150   -6.7757    0.0000 C   0  0  0  0  0  0  0  0  0  0  0  0
    2.3113   -7.8905    0.0000 C   0  0  0  0  0  0  0  0  0  0  0  0
    1.0978   -8.7721    0.0000 C   0  0  0  0  0  0  0  0  0  0  0  0
   -0.1157   -7.8905    0.0000 N   0  0  0  0  0  0  0  0  0  0  0  0
   -1.5423   -8.3540    0.0000 C   0  0  0  0  0  0  0  0  0  0  0  0
   -1.8542   -9.8212    0.0000 N   0  0  0  0  0  0  0  0  0  0  0  0
   -3.2807  -10.2847    0.0000 C   0  0  0  0  0  0  0  0  0  0  0  0
   -4.3955   -9.2810    0.0000 N   0  0  0  0  0  0  0  0  0  0  0  0
   -4.0836   -7.8138    0.0000 C   0  0  0  0  0  0  0  0  0  0  0  0
   -5.1983   -6.8101    0.0000 N   0  0  0  0  0  0  0  0  0  0  0  0
   -2.6570   -7.3503    0.0000 C   0  0  0  0  0  0  0  0  0  0  0  0
   -2.3451   -5.8831    0.0000 O   0  0  0  0  0  0  0  0  0  0  0  0
   -3.4599   -4.8794    0.0000 C   0  0  0  0  0  0  0  0  0  0  0  0
   -3.1480   -3.4121    0.0000 C   0  0  0  0  0  0  0  0  0  0  0  0
   -4.2627   -2.4085    0.0000 F   0  0  0  0  0  0  0  0  0  0  0  0
    0.3478   -6.4639    0.0000 C   0  0  0  0  0  0  0  0  0  0  0  0
  1  2  1  0
  2  3  1  0
  2  4  1  0
  4  5  1  0
  5  6  1  0
  6  7  1  0
  7  8  1  0
  8  9  2  0
  9 10  1  0
 10 11  2  0
 11 12  1  0
 12 13  1  0
 12 14  2  0
 14 15  1  0
 15 16  2  0
 16 17  1  0
 17 18  1  0
 17 19  1  0
 17 20  1  0
  9 21  1  0
 21 22  2  0
 23 22  1  1
 23 24  1  0
 25 24  1  6
 25 26  1  0
 26 27  1  0
 27 28  1  0
 28 29  2  0
 29 30  1  0
 30 31  2  0
 31 32  1  0
 32 33  1  0
 32 34  2  0
 34 35  1  0
 35 36  1  0
 36 37  1  0
 37 38  1  0
 27 39  1  0
 22  7  1  0
 25 23  1  0
 34 28  1  0
 16 10  1  0
 39 23  1  0
M  END

