
     RDKit          2D

 39 43  0  0  0  0  0  0  0  0999 V2000
   -2.7729  -10.0617    0.0000 N   0  0  0  0  0  0  0  0  0  0  0  0
   -1.3463   -9.5982    0.0000 C   0  0  0  0  0  0  0  0  0  0  0  0
    0.7040   -6.2002    0.0000 C   0  0  0  0  0  0  0  0  0  0  0  0
   -0.4107   -5.1965    0.0000 N   0  0  0  0  0  0  0  0  0  0  0  0
   -1.8373   -5.6601    0.0000 C   0  0  0  0  0  0  0  0  0  0  0  0
   -2.1491   -7.1273    0.0000 N   0  0  0  0  0  0  0  0  0  0  0  0
   -1.0344   -8.1310    0.0000 C   0  0  0  0  0  0  0  0  0  0  0  0
    0.3922   -7.6675    0.0000 N   0  0  0  0  0  0  0  0  0  0  0  0
   -5.4933   -4.1162    0.0000 C   0  0  0  0  0  0  0  0  0  0  0  0
   -5.1814   -2.6490    0.0000 C   0  0  0  0  0  0  0  0  0  0  0  0
   -3.7548   -2.1855    0.0000 N   0  0  0  0  0  0  0  0  0  0  0  0
   -2.6401   -3.1891    0.0000 C   0  0  0  0  0  0  0  0  0  0  0  0
   -2.9520   -4.6564    0.0000 C   0  0  0  0  0  0  0  0  0  0  0  0
   -4.3786   -5.1199    0.0000 N   0  0  0  0  0  0  0  0  0  0  0  0
   -1.2135   -2.7256    0.0000 N   0  0  0  0  0  0  0  0  0  0  0  0
   -0.0000   -3.6073    0.0000 N   0  0  0  0  0  0  0  0  0  0  0  0
    1.2135   -2.7256    0.0000 N   0  0  0  0  0  0  0  0  0  0  0  0
    0.7500   -1.2990    0.0000 C   0  0  0  0  0  0  0  0  0  0  0  0
    1.5000    0.0000    0.0000 C   0  0  0  0  0  0  0  0  0  0  0  0
    0.7500    1.2990    0.0000 C   0  0  0  0  0  0  0  0  0  0  0  0
   -0.7500    1.2990    0.0000 C   0  0  0  0  0  0  0  0  0  0  0  0
   -1.5000    0.0000    0.0000 C   0  0  0  0  0  0  0  0  0  0  0  0
   -0.7500   -1.2990    0.0000 C   0  0  0  0  0  0  0  0  0  0  0  0
   -6.9199   -4.5797    0.0000 C   0  0  0  0  0  0  0  0  0  0  0  0
   -8.0346   -3.5760    0.0000 O   0  0  0  0  0  0  0  0  0  0  0  0
   -7.2317   -6.0469    0.0000 O   0  0  0  0  0  0  0  0  0  0  0  0
    4.9838   -4.8097    0.0000 N   0  0  0  0  0  0  0  0  0  0  0  0
    4.6719   -6.2769    0.0000 C   0  0  0  0  0  0  0  0  0  0  0  0
    3.2453   -6.7404    0.0000 C   0  0  0  0  0  0  0  0  0  0  0  0
    2.1306   -5.7367    0.0000 C   0  0  0  0  0  0  0  0  0  0  0  0
    2.4425   -4.2695    0.0000 C   0  0  0  0  0  0  0  0  0  0  0  0
    3.8691   -3.8060    0.0000 C   0  0  0  0  0  0  0  0  0  0  0  0
   11.4930   -5.4265    0.0000 C   0  0  0  0  0  0  0  0  0  0  0  0
   10.0664   -5.8900    0.0000 N   0  0  0  0  0  0  0  0  0  0  0  0
    9.7545   -7.3572    0.0000 C   0  0  0  0  0  0  0  0  0  0  0  0
    8.9517   -4.8863    0.0000 C   0  0  0  0  0  0  0  0  0  0  0  0
    9.2636   -3.4191    0.0000 O   0  0  0  0  0  0  0  0  0  0  0  0
    7.5251   -5.3498    0.0000 N   0  0  0  0  0  0  0  0  0  0  0  0
    6.4104   -4.3461    0.0000 C   0  0  0  0  0  0  0  0  0  0  0  0
  1  2  1  0
  3  4  2  0
  4  5  1  0
  5  6  2  0
  6  7  1  0
  7  8  2  0
  8  3  1  0
  9 10  2  0
 10 11  1  0
 11 12  2  0
 12 13  1  0
 13 14  2  0
 14  9  1  0
 15 16  1  0
 16 17  2  0
 17 18  1  0
 18 19  2  0
 19 20  1  0
 20 21  2  0
 21 22  1  0
 22 23  2  0
 23 15  1  0
 23 18  1  0
 24 25  2  0
 24 26  1  0
 27 28  1  0
 28 29  1  0
 29 30  1  0
 30 31  1  0
 31 32  1  0
 32 27  1  0
 33 34  1  0
 34 35  1  0
 34 36  1  0
 36 37  2  0
 36 38  1  0
 38 39  1  0
  2  7  1  0
  5 13  1  0
 12 15  1  0
  9 24  1  0
  3 30  1  0
 27 39  1  0
M  END

