
     RDKit          2D

 42 45  0  0  0  0  0  0  0  0999 V2000
   -0.7500    6.4952    0.0000 C   0  0  0  0  0  0  0  0  0  0  0  0
   -1.5000    5.1962    0.0000 C   0  0  0  0  0  0  0  0  0  0  0  0
   -0.7500    3.8971    0.0000 C   0  0  0  0  0  0  0  0  0  0  0  0
   -1.5000    2.5981    0.0000 C   0  0  0  0  0  0  0  0  0  0  0  0
    1.5000    0.0000    0.0000 C   0  0  0  0  0  0  0  0  0  0  0  0
    0.7500   -1.2990    0.0000 C   0  0  0  0  0  0  0  0  0  0  0  0
   -0.7500   -1.2990    0.0000 C   0  0  0  0  0  0  0  0  0  0  0  0
   -1.5000    0.0000    0.0000 C   0  0  0  0  0  0  0  0  0  0  0  0
   -0.7500    1.2990    0.0000 C   0  0  0  0  0  0  0  0  0  0  0  0
    0.7500    1.2990    0.0000 C   0  0  0  0  0  0  0  0  0  0  0  0
    3.0000    5.1962    0.0000 N   0  0  0  0  0  0  0  0  0  0  0  0
    1.5000    5.1962    0.0000 C   0  0  0  0  0  0  0  0  0  0  0  0
    0.7500    3.8971    0.0000 C   0  0  0  0  0  0  0  0  0  0  0  0
    1.5000    2.5981    0.0000 C   0  0  0  0  0  0  0  0  0  0  0  0
    3.0000    2.5981    0.0000 C   0  0  0  0  0  0  0  0  0  0  0  0
    3.7500    3.8971    0.0000 C   0  0  0  0  0  0  0  0  0  0  0  0
    3.1399    7.8655    0.0000 C   0  0  0  0  0  0  0  0  0  0  0  0
    4.2546    8.8692    0.0000 N   0  0  0  0  0  0  0  0  0  0  0  0
    5.5537    8.1192    0.0000 C   0  0  0  0  0  0  0  0  0  0  0  0
    5.2418    6.6520    0.0000 C   0  0  0  0  0  0  0  0  0  0  0  0
    3.7500    6.4952    0.0000 N   0  0  0  0  0  0  0  0  0  0  0  0
   10.7213    7.5761    0.0000 C   0  0  0  0  0  0  0  0  0  0  0  0
    9.5078    8.4577    0.0000 C   0  0  0  0  0  0  0  0  0  0  0  0
    8.1375    7.8476    0.0000 C   0  0  0  0  0  0  0  0  0  0  0  0
    6.9240    8.7293    0.0000 N   0  0  0  0  0  0  0  0  0  0  0  0
   14.6755    7.9146    0.0000 C   0  0  0  0  0  0  0  0  0  0  0  0
   13.3052    7.3045    0.0000 C   0  0  0  0  0  0  0  0  0  0  0  0
   12.0917    8.1862    0.0000 N   0  0  0  0  0  0  0  0  0  0  0  0
   12.2484    9.6779    0.0000 C   0  0  0  0  0  0  0  0  0  0  0  0
   13.6188   10.2881    0.0000 C   0  0  0  0  0  0  0  0  0  0  0  0
   -1.2618    8.8011    0.0000 C   0  0  0  0  0  0  0  0  0  0  0  0
   -0.2581    9.9158    0.0000 C   0  0  0  0  0  0  0  0  0  0  0  0
    1.2091    9.6040    0.0000 C   0  0  0  0  0  0  0  0  0  0  0  0
    1.6727    8.1774    0.0000 C   0  0  0  0  0  0  0  0  0  0  0  0
    0.6690    7.0627    0.0000 C   0  0  0  0  0  0  0  0  0  0  0  0
   -0.7982    7.3745    0.0000 C   0  0  0  0  0  0  0  0  0  0  0  0
   -3.6560   11.9661    0.0000 F   0  0  0  0  0  0  0  0  0  0  0  0
   -3.1925   10.5396    0.0000 C   0  0  0  0  0  0  0  0  0  0  0  0
   -4.6191   10.0760    0.0000 F   0  0  0  0  0  0  0  0  0  0  0  0
   -1.7659   11.0031    0.0000 F   0  0  0  0  0  0  0  0  0  0  0  0
   -2.7290    9.1130    0.0000 O   0  0  0  0  0  0  0  0  0  0  0  0
    3.0000    0.0000    0.0000 N   0  0  0  0  0  0  0  0  0  0  0  0
  1  2  1  0
  2  3  1  0
  3  4  1  0
  5  6  2  0
  6  7  1  0
  7  8  2  0
  8  9  1  0
  9 10  2  0
 10  5  1  0
 11 12  1  0
 12 13  1  0
 13 14  1  0
 14 15  1  0
 15 16  1  0
 16 11  1  0
 17 18  2  0
 18 19  1  0
 19 20  2  0
 20 21  1  0
 21 17  1  0
 22 23  1  0
 23 24  1  0
 24 25  1  0
 26 27  1  0
 27 28  1  0
 28 29  1  0
 29 30  1  0
 31 32  2  0
 32 33  1  0
 33 34  2  0
 34 35  1  0
 35 36  2  0
 36 31  1  0
 37 38  1  0
 38 39  1  0
 38 40  1  0
 38 41  1  0
  4  9  1  0
 10 14  1  0
 11 21  1  0
 19 25  1  0
 22 28  1  0
 17 34  1  0
 31 41  1  0
  5 42  1  0
M  END

