
     RDKit          2D

 40 44  0  0  0  0  0  0  0  0999 V2000
   -6.0000   -5.1962    0.0000 C   0  0  0  0  0  0  0  0  0  0  0  0
   -5.2500   -3.8971    0.0000 C   0  0  0  0  0  0  0  0  0  0  0  0
   -3.7500   -3.8971    0.0000 N   0  0  0  0  0  0  0  0  0  0  0  0
   -3.0000   -5.1962    0.0000 C   0  0  0  0  0  0  0  0  0  0  0  0
   -3.7500   -6.4952    0.0000 C   0  0  0  0  0  0  0  0  0  0  0  0
   -1.5000   -2.5981    0.0000 C   0  0  0  0  0  0  0  0  0  0  0  0
   -3.0000   -2.5981    0.0000 C   0  0  0  0  0  0  0  0  0  0  0  0
    0.7500   -1.2990    0.0000 C   0  0  0  0  0  0  0  0  0  0  0  0
    1.5000    0.0000    0.0000 C   0  0  0  0  0  0  0  0  0  0  0  0
    0.7500    1.2990    0.0000 C   0  0  0  0  0  0  0  0  0  0  0  0
   -0.7500    1.2990    0.0000 C   0  0  0  0  0  0  0  0  0  0  0  0
   -1.5000    0.0000    0.0000 C   0  0  0  0  0  0  0  0  0  0  0  0
   -0.7500   -1.2990    0.0000 C   0  0  0  0  0  0  0  0  0  0  0  0
    3.0000    5.1962    0.0000 C   0  0  0  0  0  0  0  0  0  0  0  0
    3.7500    3.8971    0.0000 C   0  0  0  0  0  0  0  0  0  0  0  0
    3.0000    2.5981    0.0000 C   0  0  0  0  0  0  0  0  0  0  0  0
    1.5000    2.5981    0.0000 C   0  0  0  0  0  0  0  0  0  0  0  0
    0.7500    3.8971    0.0000 C   0  0  0  0  0  0  0  0  0  0  0  0
    1.5000    5.1962    0.0000 C   0  0  0  0  0  0  0  0  0  0  0  0
    7.5000    5.1962    0.0000 F   0  0  0  0  0  0  0  0  0  0  0  0
    6.7500    6.4952    0.0000 C   0  0  0  0  0  0  0  0  0  0  0  0
    7.5000    7.7942    0.0000 F   0  0  0  0  0  0  0  0  0  0  0  0
    5.2500    6.4952    0.0000 C   0  0  0  0  0  0  0  0  0  0  0  0
    5.2500    4.9952    0.0000 F   0  0  0  0  0  0  0  0  0  0  0  0
    5.2500    7.9952    0.0000 F   0  0  0  0  0  0  0  0  0  0  0  0
    3.7500    6.4952    0.0000 O   0  0  0  0  0  0  0  0  0  0  0  0
    3.8740   -3.1027    0.0000 N   0  0  0  0  0  0  0  0  0  0  0  0
    3.1240   -4.4017    0.0000 C   0  0  0  0  0  0  0  0  0  0  0  0
    1.6568   -4.0899    0.0000 C   0  0  0  0  0  0  0  0  0  0  0  0
    0.2865   -3.4798    0.0000 C   0  0  0  0  0  0  0  0  0  0  0  0
    1.5000   -2.5981    0.0000 C   0  0  0  0  0  0  0  0  0  0  0  0
    2.8703   -1.9880    0.0000 C   0  0  0  0  0  0  0  0  0  0  0  0
    8.0778   -0.0485    0.0000 O   0  0  0  0  0  0  0  0  0  0  0  0
    7.4677   -1.4188    0.0000 C   0  0  0  0  0  0  0  0  0  0  0  0
    8.3494   -2.6323    0.0000 N   0  0  0  0  0  0  0  0  0  0  0  0
    7.7393   -4.0026    0.0000 C   0  0  0  0  0  0  0  0  0  0  0  0
    6.2475   -4.1594    0.0000 C   0  0  0  0  0  0  0  0  0  0  0  0
    5.3658   -2.9459    0.0000 C   0  0  0  0  0  0  0  0  0  0  0  0
    5.9759   -1.5756    0.0000 N   0  0  0  0  0  0  0  0  0  0  0  0
    8.6209   -5.2162    0.0000 N   0  0  0  0  0  0  0  0  0  0  0  0
  1  2  1  0
  2  3  1  0
  3  4  1  0
  4  5  1  0
  6  7  1  0
  8  9  2  0
  9 10  1  0
 10 11  2  0
 11 12  1  0
 12 13  2  0
 13  8  1  0
 14 15  2  0
 15 16  1  0
 16 17  2  0
 17 18  1  0
 18 19  2  0
 19 14  1  0
 20 21  1  0
 21 22  1  0
 21 23  1  0
 23 24  1  0
 23 25  1  0
 23 26  1  0
 27 28  1  0
 29 28  1  1
 29 30  1  0
 30 31  1  0
 31 32  1  0
 32 27  1  0
 31 29  1  0
 33 34  2  0
 34 35  1  0
 35 36  2  0
 36 37  1  0
 37 38  2  0
 38 39  1  0
 39 34  1  0
  3  7  1  0
  6 13  1  0
 10 17  1  0
 14 26  1  0
 31  8  1  6
 27 38  1  0
 36 40  1  0
M  END

