
     RDKit          2D

 26 29  0  0  0  0  0  0  0  0999 V2000
   -0.7500    3.8971    0.0000 C   0  0  0  0  0  0  0  0  0  0  0  0
   -1.5000    2.5981    0.0000 N   0  0  0  0  0  0  0  0  0  0  0  0
   -0.0000   -3.6073    0.0000 C   0  0  0  0  0  0  0  0  0  0  0  0
    1.2135   -2.7256    0.0000 O   0  0  0  0  0  0  0  0  0  0  0  0
    0.7500   -1.2990    0.0000 C   0  0  0  0  0  0  0  0  0  0  0  0
    1.5000    0.0000    0.0000 C   0  0  0  0  0  0  0  0  0  0  0  0
    0.7500    1.2990    0.0000 C   0  0  0  0  0  0  0  0  0  0  0  0
   -0.7500    1.2990    0.0000 C   0  0  0  0  0  0  0  0  0  0  0  0
   -1.5000    0.0000    0.0000 C   0  0  0  0  0  0  0  0  0  0  0  0
   -0.7500   -1.2990    0.0000 C   0  0  0  0  0  0  0  0  0  0  0  0
   -1.2135   -2.7256    0.0000 O   0  0  0  0  0  0  0  0  0  0  0  0
   -2.4709   -4.4102    0.0000 O   0  0  0  0  0  0  0  0  0  0  0  0
   -1.0037   -4.7220    0.0000 C   0  0  0  0  0  0  0  0  0  0  0  0
   -0.5402   -6.1486    0.0000 C   0  0  0  0  0  0  0  0  0  0  0  0
   -1.5439   -7.2633    0.0000 C   0  0  0  0  0  0  0  0  0  0  0  0
   -3.0111   -6.9515    0.0000 C   0  0  0  0  0  0  0  0  0  0  0  0
   -4.0148   -8.0662    0.0000 C   0  0  0  0  0  0  0  0  0  0  0  0
   -3.5513   -9.4928    0.0000 C   0  0  0  0  0  0  0  0  0  0  0  0
   -2.0840   -9.8046    0.0000 C   0  0  0  0  0  0  0  0  0  0  0  0
   -1.0803   -8.6899    0.0000 N   0  0  0  0  0  0  0  0  0  0  0  0
    1.0037   -4.7220    0.0000 N   0  0  0  0  0  0  0  0  0  0  0  0
    0.5402   -6.1486    0.0000 C   0  0  0  0  0  0  0  0  0  0  0  0
    1.5439   -7.2633    0.0000 C   0  0  0  0  0  0  0  0  0  0  0  0
    3.0111   -6.9515    0.0000 O   0  0  0  0  0  0  0  0  0  0  0  0
    3.4746   -5.5249    0.0000 C   0  0  0  0  0  0  0  0  0  0  0  0
    2.4709   -4.4102    0.0000 C   0  0  0  0  0  0  0  0  0  0  0  0
  1  2  1  0
  3  4  1  0
  4  5  1  0
  5  6  2  0
  6  7  1  0
  7  8  2  0
  8  9  1  0
  9 10  2  0
 10 11  1  0
 11  3  1  0
 10  5  1  0
 12 13  2  0
 13 14  1  0
 15 16  2  0
 16 17  1  0
 17 18  2  0
 18 19  1  0
 19 20  2  0
 20 15  1  0
 21 22  1  0
 22 23  1  0
 23 24  1  0
 24 25  1  0
 25 26  1  0
 26 21  1  0
  2  8  1  0
  3 13  1  0
 14 15  1  0
  3 21  1  0
M  END

