
     RDKit          2D

 34 37  0  0  0  0  0  0  0  0999 V2000
   -0.4070   -4.6988    0.0000 C   0  0  0  0  0  0  0  0  0  0  0  0
   -0.9200   -3.2893    0.0000 S   0  0  0  0  0  0  0  0  0  0  0  0
   -1.4330   -1.8797    0.0000 O   0  0  0  0  0  0  0  0  0  0  0  0
   -2.3296   -3.8023    0.0000 O   0  0  0  0  0  0  0  0  0  0  0  0
    0.4895   -2.7762    0.0000 O   0  0  0  0  0  0  0  0  0  0  0  0
    0.7500   -1.2990    0.0000 C   0  0  0  0  0  0  0  0  0  0  0  0
    1.5000    0.0000    0.0000 C   0  0  0  0  0  0  0  0  0  0  0  0
    0.7500    1.2990    0.0000 C   0  0  0  0  0  0  0  0  0  0  0  0
   -0.7500    1.2990    0.0000 C   0  0  0  0  0  0  0  0  0  0  0  0
   -1.5000    0.0000    0.0000 C   0  0  0  0  0  0  0  0  0  0  0  0
   -0.7500   -1.2990    0.0000 C   0  0  0  0  0  0  0  0  0  0  0  0
    3.8296   -3.8023    0.0000 C   0  0  0  0  0  0  0  0  0  0  0  0
    4.9786   -2.8381    0.0000 N   0  0  0  0  0  0  0  0  0  0  0  0
    4.7181   -1.3609    0.0000 C   0  0  0  0  0  0  0  0  0  0  0  0
    3.3086   -0.8479    0.0000 N   0  0  0  0  0  0  0  0  0  0  0  0
    2.1595   -1.8121    0.0000 C   0  0  0  0  0  0  0  0  0  0  0  0
    2.4200   -3.2893    0.0000 N   0  0  0  0  0  0  0  0  0  0  0  0
    5.6067    1.0805    0.0000 C   0  0  0  0  0  0  0  0  0  0  0  0
    6.7558    2.0447    0.0000 C   0  0  0  0  0  0  0  0  0  0  0  0
    8.1653    1.5316    0.0000 N   0  0  0  0  0  0  0  0  0  0  0  0
    8.4258    0.0544    0.0000 C   0  0  0  0  0  0  0  0  0  0  0  0
    7.2768   -0.9098    0.0000 C   0  0  0  0  0  0  0  0  0  0  0  0
    5.8672   -0.3967    0.0000 C   0  0  0  0  0  0  0  0  0  0  0  0
   11.2449   -0.9716    0.0000 F   0  0  0  0  0  0  0  0  0  0  0  0
    9.8354   -0.4586    0.0000 C   0  0  0  0  0  0  0  0  0  0  0  0
    9.3223   -1.8682    0.0000 F   0  0  0  0  0  0  0  0  0  0  0  0
   10.3484    0.9509    0.0000 F   0  0  0  0  0  0  0  0  0  0  0  0
    4.1972    1.5935    0.0000 I   0  0  0  0  0  0  0  0  0  0  0  0
    3.7522   -7.6830    0.0000 C   0  0  0  0  0  0  0  0  0  0  0  0
    5.2295   -7.4225    0.0000 C   0  0  0  0  0  0  0  0  0  0  0  0
    5.4382   -5.9371    0.0000 S   0  0  0  0  0  0  0  0  0  0  0  0
    4.0900   -5.2795    0.0000 C   0  0  0  0  0  0  0  0  0  0  0  0
    3.0480   -6.3585    0.0000 N   0  0  0  0  0  0  0  0  0  0  0  0
    3.0947   -9.0311    0.0000 C   0  0  0  0  0  0  0  0  0  0  0  0
  1  2  1  0
  2  3  2  0
  2  4  2  0
  2  5  1  0
  6  7  1  0
  7  8  1  0
  8  9  1  0
  9 10  1  0
 10 11  1  0
 11  6  1  0
 12 13  2  0
 13 14  1  0
 14 15  2  0
 15 16  1  0
 16 17  2  0
 17 12  1  0
 18 19  2  0
 19 20  1  0
 20 21  2  0
 21 22  1  0
 22 23  2  0
 23 18  1  0
 24 25  1  0
 25 26  1  0
 25 27  1  0
 29 30  1  0
 30 31  1  0
 31 32  1  0
 32 33  2  0
 33 29  1  0
  5  6  1  0
  6 16  1  0
 14 23  1  0
 21 25  1  0
 18 28  1  0
 12 32  1  0
 29 34  1  6
M  END

