
     RDKit          2D

 32 36  0  0  0  0  0  0  0  0999 V2000
   -1.3921   -3.7770    0.0000 C   0  0  0  0  0  0  0  0  0  0  0  0
   -0.5104   -4.9905    0.0000 C   0  0  0  0  0  0  0  0  0  0  0  0
    0.9814   -4.8337    0.0000 C   0  0  0  0  0  0  0  0  0  0  0  0
    1.5915   -3.4634    0.0000 C   0  0  0  0  0  0  0  0  0  0  0  0
    0.7098   -2.2499    0.0000 C   0  0  0  0  0  0  0  0  0  0  0  0
   -0.7820   -2.4067    0.0000 C   0  0  0  0  0  0  0  0  0  0  0  0
   -2.6123   -6.5176    0.0000 N   0  0  0  0  0  0  0  0  0  0  0  0
   -3.4940   -5.3041    0.0000 C   0  0  0  0  0  0  0  0  0  0  0  0
   -2.8839   -3.9338    0.0000 C   0  0  0  0  0  0  0  0  0  0  0  0
   -3.7655   -2.7203    0.0000 N   0  0  0  0  0  0  0  0  0  0  0  0
   -3.1554   -1.3499    0.0000 C   0  0  0  0  0  0  0  0  0  0  0  0
   -1.6637   -1.1931    0.0000 O   0  0  0  0  0  0  0  0  0  0  0  0
   -6.0006    1.2902    0.0000 C   0  0  0  0  0  0  0  0  0  0  0  0
   -4.7871    2.1718    0.0000 C   0  0  0  0  0  0  0  0  0  0  0  0
   -3.5736    1.2902    0.0000 C   0  0  0  0  0  0  0  0  0  0  0  0
   -4.0371   -0.1364    0.0000 C   0  0  0  0  0  0  0  0  0  0  0  0
   -5.5371   -0.1364    0.0000 S   0  0  0  0  0  0  0  0  0  0  0  0
   -2.1470    1.7537    0.0000 C   0  0  0  0  0  0  0  0  0  0  0  0
   -1.0323    0.7500    0.0000 C   0  0  0  0  0  0  0  0  0  0  0  0
    0.3943    1.2135    0.0000 C   0  0  0  0  0  0  0  0  0  0  0  0
    0.7062    2.6807    0.0000 C   0  0  0  0  0  0  0  0  0  0  0  0
   -0.4086    3.6844    0.0000 C   0  0  0  0  0  0  0  0  0  0  0  0
   -0.4086    5.1844    0.0000 N   0  0  0  0  0  0  0  0  0  0  0  0
   -1.8351    5.6480    0.0000 C   0  0  0  0  0  0  0  0  0  0  0  0
   -2.7168    4.4344    0.0000 C   0  0  0  0  0  0  0  0  0  0  0  0
   -1.8351    3.2209    0.0000 N   0  0  0  0  0  0  0  0  0  0  0  0
   -7.4272    1.7537    0.0000 C   0  0  0  0  0  0  0  0  0  0  0  0
   -7.7391    3.2209    0.0000 C   0  0  0  0  0  0  0  0  0  0  0  0
   -9.1657    3.6844    0.0000 N   0  0  0  0  0  0  0  0  0  0  0  0
  -10.2804    2.6807    0.0000 C   0  0  0  0  0  0  0  0  0  0  0  0
   -9.9685    1.2135    0.0000 N   0  0  0  0  0  0  0  0  0  0  0  0
   -8.5419    0.7500    0.0000 C   0  0  0  0  0  0  0  0  0  0  0  0
  1  2  2  0
  2  3  1  0
  3  4  2  0
  4  5  1  0
  5  6  2  0
  6  1  1  0
  7  8  1  0
  8  9  1  0
  9 10  1  0
 10 11  1  0
 11 12  2  0
 13 14  2  0
 14 15  1  0
 15 16  2  0
 16 17  1  0
 17 13  1  0
 18 19  2  0
 19 20  1  0
 20 21  2  0
 21 22  1  0
 22 23  2  0
 23 24  1  0
 24 25  2  0
 25 26  1  0
 26 18  1  0
 26 22  1  0
 27 28  2  0
 28 29  1  0
 29 30  2  0
 30 31  1  0
 31 32  2  0
 32 27  1  0
  1  9  1  0
 11 16  1  0
 15 18  1  0
 13 27  1  0
M  END

