
     RDKit          2D

 41 45  0  0  0  0  0  0  0  0999 V2000
   -7.5785   -4.0051    0.0000 N   0  0  0  0  0  0  0  0  0  0  0  0
   -7.5785   -5.5051    0.0000 C   0  0  0  0  0  0  0  0  0  0  0  0
   -9.0051   -5.9687    0.0000 C   0  0  0  0  0  0  0  0  0  0  0  0
   -9.8868   -4.7551    0.0000 C   0  0  0  0  0  0  0  0  0  0  0  0
   -9.0051   -3.5416    0.0000 C   0  0  0  0  0  0  0  0  0  0  0  0
   -6.5218   -1.6317    0.0000 C   0  0  0  0  0  0  0  0  0  0  0  0
   -6.3650   -3.1235    0.0000 C   0  0  0  0  0  0  0  0  0  0  0  0
   -5.3083    0.7500    0.0000 C   0  0  0  0  0  0  0  0  0  0  0  0
   -3.8817    1.2135    0.0000 N   0  0  0  0  0  0  0  0  0  0  0  0
   -3.0000    0.0000    0.0000 C   0  0  0  0  0  0  0  0  0  0  0  0
   -3.8817   -1.2135    0.0000 C   0  0  0  0  0  0  0  0  0  0  0  0
   -5.3083   -0.7500    0.0000 N   0  0  0  0  0  0  0  0  0  0  0  0
    1.5000    0.0000    0.0000 C   0  0  0  0  0  0  0  0  0  0  0  0
    0.7500   -1.2990    0.0000 C   0  0  0  0  0  0  0  0  0  0  0  0
   -0.7500   -1.2990    0.0000 C   0  0  0  0  0  0  0  0  0  0  0  0
   -1.5000    0.0000    0.0000 C   0  0  0  0  0  0  0  0  0  0  0  0
   -0.7500    1.2990    0.0000 C   0  0  0  0  0  0  0  0  0  0  0  0
    0.7500    1.2990    0.0000 C   0  0  0  0  0  0  0  0  0  0  0  0
    3.0000    0.0000    0.0000 O   0  0  0  0  0  0  0  0  0  0  0  0
    3.7500   -1.2990    0.0000 C   0  0  0  0  0  0  0  0  0  0  0  0
    5.2500   -1.2990    0.0000 C   0  0  0  0  0  0  0  0  0  0  0  0
    6.0000   -2.5981    0.0000 O   0  0  0  0  0  0  0  0  0  0  0  0
    7.5000   -2.5981    0.0000 C   0  0  0  0  0  0  0  0  0  0  0  0
    8.2500   -3.8971    0.0000 C   0  0  0  0  0  0  0  0  0  0  0  0
    9.7500   -3.8971    0.0000 F   0  0  0  0  0  0  0  0  0  0  0  0
   -8.9488    3.3950    0.0000 N   0  0  0  0  0  0  0  0  0  0  0  0
   -9.1056    1.9033    0.0000 C   0  0  0  0  0  0  0  0  0  0  0  0
   -7.8921    1.0216    0.0000 C   0  0  0  0  0  0  0  0  0  0  0  0
   -6.5218    1.6317    0.0000 C   0  0  0  0  0  0  0  0  0  0  0  0
   -6.3650    3.1235    0.0000 C   0  0  0  0  0  0  0  0  0  0  0  0
   -7.5785    4.0051    0.0000 C   0  0  0  0  0  0  0  0  0  0  0  0
  -11.5889    6.2402    0.0000 C   0  0  0  0  0  0  0  0  0  0  0  0
  -12.4706    5.0267    0.0000 C   0  0  0  0  0  0  0  0  0  0  0  0
  -11.5889    3.8132    0.0000 N   0  0  0  0  0  0  0  0  0  0  0  0
  -10.1624    4.2767    0.0000 N   0  0  0  0  0  0  0  0  0  0  0  0
  -10.1624    5.7767    0.0000 C   0  0  0  0  0  0  0  0  0  0  0  0
   -8.9488    6.6584    0.0000 N   0  0  0  0  0  0  0  0  0  0  0  0
  -12.0525    7.6668    0.0000 C   0  0  0  0  0  0  0  0  0  0  0  0
  -11.0488    8.7815    0.0000 C   0  0  0  0  0  0  0  0  0  0  0  0
  -11.5123   10.2081    0.0000 C   0  0  0  0  0  0  0  0  0  0  0  0
  -11.9758   11.6347    0.0000 N   0  0  0  0  0  0  0  0  0  0  0  0
  1  2  1  0
  2  3  1  0
  3  4  1  0
  4  5  1  0
  5  1  1  0
  6  7  1  0
  8  9  2  0
  9 10  1  0
 10 11  2  0
 11 12  1  0
 12  8  1  0
 13 14  2  0
 14 15  1  0
 15 16  2  0
 16 17  1  0
 17 18  2  0
 18 13  1  0
 19 20  1  0
 20 21  1  0
 21 22  1  0
 22 23  1  0
 23 24  1  0
 24 25  1  0
 26 27  1  0
 27 28  1  0
 28 29  1  0
 29 30  1  0
 30 31  1  0
 31 26  1  0
 32 33  1  0
 33 34  2  0
 34 35  1  0
 35 36  1  0
 36 32  2  0
 38 39  1  0
 39 40  1  0
 40 41  3  0
  1  7  1  0
  6 12  1  0
 10 16  1  0
 13 19  1  0
  8 29  1  0
 26 35  1  0
 36 37  1  0
 32 38  1  0
M  END

