
     RDKit          2D

 29 31  0  0  0  0  0  0  0  0999 V2000
   -6.3034   10.8869    0.0000 C   0  0  0  0  0  0  0  0  0  0  0  0
   -7.6024   10.1369    0.0000 C   0  0  0  0  0  0  0  0  0  0  0  0
   -8.9015    9.3869    0.0000 C   0  0  0  0  0  0  0  0  0  0  0  0
   -8.3524   11.4360    0.0000 C   0  0  0  0  0  0  0  0  0  0  0  0
   -6.3478    6.4639    0.0000 C   0  0  0  0  0  0  0  0  0  0  0  0
   -7.4625    7.4676    0.0000 C   0  0  0  0  0  0  0  0  0  0  0  0
   -6.8524    8.8379    0.0000 C   0  0  0  0  0  0  0  0  0  0  0  0
   -5.3606    8.6811    0.0000 O   0  0  0  0  0  0  0  0  0  0  0  0
   -5.0488    7.2139    0.0000 N   0  0  0  0  0  0  0  0  0  0  0  0
   -7.8037    4.2221    0.0000 C   0  0  0  0  0  0  0  0  0  0  0  0
   -7.4918    2.7549    0.0000 N   0  0  0  0  0  0  0  0  0  0  0  0
   -6.0000    2.5981    0.0000 C   0  0  0  0  0  0  0  0  0  0  0  0
   -5.3899    3.9684    0.0000 S   0  0  0  0  0  0  0  0  0  0  0  0
   -6.5046    4.9721    0.0000 C   0  0  0  0  0  0  0  0  0  0  0  0
   -6.0000    0.0000    0.0000 O   0  0  0  0  0  0  0  0  0  0  0  0
   -5.2500    1.2990    0.0000 C   0  0  0  0  0  0  0  0  0  0  0  0
   -3.7500    1.2990    0.0000 C   0  0  0  0  0  0  0  0  0  0  0  0
   -3.0000    0.0000    0.0000 C   0  0  0  0  0  0  0  0  0  0  0  0
    1.5000    0.0000    0.0000 N   0  0  0  0  0  0  0  0  0  0  0  0
    0.7500   -1.2990    0.0000 C   0  0  0  0  0  0  0  0  0  0  0  0
   -0.7500   -1.2990    0.0000 C   0  0  0  0  0  0  0  0  0  0  0  0
   -1.5000    0.0000    0.0000 N   0  0  0  0  0  0  0  0  0  0  0  0
   -0.7500    1.2990    0.0000 C   0  0  0  0  0  0  0  0  0  0  0  0
    0.7500    1.2990    0.0000 C   0  0  0  0  0  0  0  0  0  0  0  0
    3.0000    2.5981    0.0000 N   0  0  0  0  0  0  0  0  0  0  0  0
    1.5000    2.5981    0.0000 C   0  0  0  0  0  0  0  0  0  0  0  0
    0.7500    3.8971    0.0000 O   0  0  0  0  0  0  0  0  0  0  0  0
    3.0000    0.0000    0.0000 C   0  0  0  0  0  0  0  0  0  0  0  0
   -9.1740    4.8322    0.0000 C   0  0  0  0  0  0  0  0  0  0  0  0
  1  2  1  0
  2  3  1  0
  2  4  1  0
  5  6  1  0
  6  7  2  0
  7  8  1  0
  8  9  1  0
  9  5  2  0
 10 11  1  0
 11 12  2  0
 12 13  1  0
 13 14  1  0
 14 10  2  0
 16 15  1  1
 16 17  1  0
 17 18  1  0
 19 20  1  0
 20 21  1  0
 21 22  1  0
 22 23  1  0
 23 24  1  0
 24 19  1  0
 25 26  1  0
 26 27  2  0
  2  7  1  0
  5 14  1  0
 12 16  1  0
 18 22  1  0
 24 26  1  0
 19 28  1  0
 10 29  1  0
M  END

