
     RDKit          2D

 33 37  0  0  0  0  0  0  0  0999 V2000
   -1.2135   -2.7256    0.0000 N   0  0  0  0  0  0  0  0  0  0  0  0
   -0.0000   -3.6073    0.0000 N   0  0  0  0  0  0  0  0  0  0  0  0
    1.2135   -2.7256    0.0000 C   0  0  0  0  0  0  0  0  0  0  0  0
    0.7500   -1.2990    0.0000 C   0  0  0  0  0  0  0  0  0  0  0  0
    1.5000    0.0000    0.0000 C   0  0  0  0  0  0  0  0  0  0  0  0
    0.7500    1.2990    0.0000 C   0  0  0  0  0  0  0  0  0  0  0  0
   -0.7500    1.2990    0.0000 C   0  0  0  0  0  0  0  0  0  0  0  0
   -1.5000    0.0000    0.0000 C   0  0  0  0  0  0  0  0  0  0  0  0
   -0.7500   -1.2990    0.0000 C   0  0  0  0  0  0  0  0  0  0  0  0
   -5.1814   -2.6490    0.0000 C   0  0  0  0  0  0  0  0  0  0  0  0
   -5.4933   -4.1162    0.0000 C   0  0  0  0  0  0  0  0  0  0  0  0
   -4.3786   -5.1199    0.0000 N   0  0  0  0  0  0  0  0  0  0  0  0
   -2.9520   -4.6564    0.0000 C   0  0  0  0  0  0  0  0  0  0  0  0
   -2.6401   -3.1891    0.0000 C   0  0  0  0  0  0  0  0  0  0  0  0
   -3.7548   -2.1855    0.0000 N   0  0  0  0  0  0  0  0  0  0  0  0
   -1.8373   -5.6601    0.0000 N   0  0  0  0  0  0  0  0  0  0  0  0
   -7.5097    0.4566    0.0000 N   0  0  0  0  0  0  0  0  0  0  0  0
   -6.1393   -0.1535    0.0000 C   0  0  0  0  0  0  0  0  0  0  0  0
   -6.2961   -1.6453    0.0000 C   0  0  0  0  0  0  0  0  0  0  0  0
   -7.7634   -1.9571    0.0000 C   0  0  0  0  0  0  0  0  0  0  0  0
   -8.5134   -0.6581    0.0000 N   0  0  0  0  0  0  0  0  0  0  0  0
   -8.4453    4.8583    0.0000 N   0  0  0  0  0  0  0  0  0  0  0  0
   -7.0187    4.3947    0.0000 C   0  0  0  0  0  0  0  0  0  0  0  0
   -6.7068    2.9275    0.0000 C   0  0  0  0  0  0  0  0  0  0  0  0
   -7.8215    1.9238    0.0000 C   0  0  0  0  0  0  0  0  0  0  0  0
   -9.2481    2.3874    0.0000 C   0  0  0  0  0  0  0  0  0  0  0  0
   -9.5600    3.8546    0.0000 C   0  0  0  0  0  0  0  0  0  0  0  0
   -6.8396    9.8001    0.0000 C   0  0  0  0  0  0  0  0  0  0  0  0
   -7.9543    8.7964    0.0000 N   0  0  0  0  0  0  0  0  0  0  0  0
   -9.3809    9.2599    0.0000 C   0  0  0  0  0  0  0  0  0  0  0  0
   -7.6424    7.3292    0.0000 C   0  0  0  0  0  0  0  0  0  0  0  0
   -8.7571    6.3255    0.0000 C   0  0  0  0  0  0  0  0  0  0  0  0
  -10.1837    6.7890    0.0000 O   0  0  0  0  0  0  0  0  0  0  0  0
  1  2  1  0
  2  3  2  0
  3  4  1  0
  4  5  2  0
  5  6  1  0
  6  7  2  0
  7  8  1  0
  8  9  2  0
  9  1  1  0
  9  4  1  0
 10 11  2  0
 11 12  1  0
 12 13  2  0
 13 14  1  0
 14 15  2  0
 15 10  1  0
 17 18  1  0
 18 19  2  0
 19 20  1  0
 20 21  2  0
 21 17  1  0
 22 23  1  0
 23 24  1  0
 24 25  2  0
 25 26  1  0
 26 27  1  0
 27 22  1  0
 28 29  1  0
 29 30  1  0
 29 31  1  0
 31 32  1  0
 32 33  2  0
  1 14  1  0
 13 16  1  0
 10 19  1  0
 17 25  1  0
 22 32  1  0
M  END

