
     RDKit          2D

 37 41  0  0  0  0  0  0  0  0999 V2000
   -2.1470    1.7537    0.0000 C   0  0  0  0  0  0  0  0  0  0  0  0
   -1.8351    3.2209    0.0000 N   0  0  0  0  0  0  0  0  0  0  0  0
   -0.4086    3.6844    0.0000 C   0  0  0  0  0  0  0  0  0  0  0  0
    0.7062    2.6807    0.0000 N   0  0  0  0  0  0  0  0  0  0  0  0
    0.3943    1.2135    0.0000 C   0  0  0  0  0  0  0  0  0  0  0  0
    1.2760    0.0000    0.0000 N   0  0  0  0  0  0  0  0  0  0  0  0
    0.3943   -1.2135    0.0000 C   0  0  0  0  0  0  0  0  0  0  0  0
   -1.0323   -0.7500    0.0000 C   0  0  0  0  0  0  0  0  0  0  0  0
   -1.0323    0.7500    0.0000 C   0  0  0  0  0  0  0  0  0  0  0  0
   -6.4268    0.3631    0.0000 C   0  0  0  0  0  0  0  0  0  0  0  0
   -5.3120   -0.6406    0.0000 C   0  0  0  0  0  0  0  0  0  0  0  0
   -3.8855   -0.1771    0.0000 C   0  0  0  0  0  0  0  0  0  0  0  0
   -3.5736    1.2902    0.0000 N   0  0  0  0  0  0  0  0  0  0  0  0
   -4.6883    2.2939    0.0000 C   0  0  0  0  0  0  0  0  0  0  0  0
   -6.1149    1.8303    0.0000 C   0  0  0  0  0  0  0  0  0  0  0  0
   -8.7908   -1.4839    0.0000 O   0  0  0  0  0  0  0  0  0  0  0  0
   -8.9995    0.0015    0.0000 C   0  0  0  0  0  0  0  0  0  0  0  0
   -7.8175    0.9250    0.0000 N   0  0  0  0  0  0  0  0  0  0  0  0
   -8.0263    2.4104    0.0000 C   0  0  0  0  0  0  0  0  0  0  0  0
   -9.4171    2.9723    0.0000 C   0  0  0  0  0  0  0  0  0  0  0  0
   -9.6258    4.4577    0.0000 C   0  0  0  0  0  0  0  0  0  0  0  0
  -15.1889    6.7054    0.0000 O   0  0  0  0  0  0  0  0  0  0  0  0
  -13.7982    6.1435    0.0000 C   0  0  0  0  0  0  0  0  0  0  0  0
  -12.6161    7.0670    0.0000 N   0  0  0  0  0  0  0  0  0  0  0  0
  -11.2254    6.5051    0.0000 C   0  0  0  0  0  0  0  0  0  0  0  0
  -10.0433    7.4285    0.0000 O   0  0  0  0  0  0  0  0  0  0  0  0
  -11.0166    5.0197    0.0000 N   0  0  0  0  0  0  0  0  0  0  0  0
  -12.1986    4.0962    0.0000 C   0  0  0  0  0  0  0  0  0  0  0  0
  -13.5894    4.6581    0.0000 C   0  0  0  0  0  0  0  0  0  0  0  0
  -14.7714    3.7346    0.0000 Cl  0  0  0  0  0  0  0  0  0  0  0  0
  -10.3903    0.5634    0.0000 N   0  0  0  0  0  0  0  0  0  0  0  0
  -10.5991    2.0488    0.0000 C   0  0  0  0  0  0  0  0  0  0  0  0
  -11.9899    2.6108    0.0000 C   0  0  0  0  0  0  0  0  0  0  0  0
  -13.1719    1.6873    0.0000 C   0  0  0  0  0  0  0  0  0  0  0  0
  -12.9631    0.2019    0.0000 C   0  0  0  0  0  0  0  0  0  0  0  0
  -11.5723   -0.3600    0.0000 C   0  0  0  0  0  0  0  0  0  0  0  0
   -7.2216   -0.9090    0.0000 N   0  0  0  0  0  0  0  0  0  0  0  0
  1  2  2  0
  2  3  1  0
  3  4  2  0
  4  5  1  0
  5  6  1  0
  6  7  1  0
  7  8  2  0
  8  9  1  0
  9  1  1  0
  9  5  2  0
 10 11  1  0
 11 12  1  0
 12 13  1  0
 13 14  1  0
 14 15  1  0
 15 10  1  0
 16 17  2  0
 17 18  1  0
 18 19  1  0
 19 20  1  0
 20 21  1  0
 22 23  2  0
 23 24  1  0
 24 25  1  0
 25 26  2  0
 25 27  1  0
 27 28  1  0
 28 29  2  0
 29 23  1  0
 31 32  1  0
 32 33  1  0
 33 34  1  0
 34 35  1  0
 35 36  1  0
 36 31  1  0
  1 13  1  0
 10 18  1  0
 21 27  1  0
 29 30  1  0
 17 31  1  0
 10 37  1  0
M  END

